
#######################################################################
#
#                 Cambridge Crystallographic Data Centre
#                                CCDC 
#
#######################################################################
#
# If this CIF has been generated from an entry in the Cambridge 
# Structural Database, then it will include bibliographic, chemical, 
# crystal, experimental, refinement or atomic coordinate data resulting 
# from the CCDC's data processing and validation procedures.
#
#######################################################################

data_ADACAL
_chemical_formula_moiety         'C49 H16 N5 O15 Zn12'
_symmetry_cell_setting           trigonal
_symmetry_space_group_name_H-M   'P -3 1 c'
_symmetry_Int_Tables_number      163
_space_group_name_Hall           '-P 3 2c'
loop_
_symmetry_equiv_pos_site_id
_symmetry_equiv_pos_as_xyz
1 x,y,z
2 -y,x-y,z
3 -y,-x,1/2-z
4 -x+y,-x,z
5 x,x-y,1/2-z
6 -x+y,y,1/2-z
7 -x,-y,-z
8 y,-x+y,-z
9 y,x,1/2+z
10 x-y,x,-z
11 -x,-x+y,1/2+z
12 x-y,-y,1/2+z
_cell_length_a                   37.1796(6)
_cell_length_b                   37.1796(6)
_cell_length_c                   29.9563(6)
_cell_angle_alpha                90
_cell_angle_beta                 90
_cell_angle_gamma                120
_cell_volume                     35861.5
loop_
_atom_site_label
_atom_site_type_symbol
_atom_site_fract_x
_atom_site_fract_y
_atom_site_fract_z
_atom_site_U_iso_or_equiv
_atom_site_thermal_displace_type
C1 C -0.11194(13) 0.1120(3) 0.25000 0.0872 Uani
C2 C -0.08866(14) 0.0886(3) 0.25000 0.0902 Uani
C3 C -0.0875(6) 0.0703(5) 0.2127(4) 0.2936 Uani
H1 H -0.0989 0.0732 0.1862 0.3500 Uiso
C4 C -0.0663(6) 0.0443(4) 0.2155(4) 0.2664 Uani
H2 H -0.0685 0.0272 0.1917 0.3200 Uiso
C5 C -0.04573(14) 0.0458(3) 0.25000 0.0923 Uani
C6 C -0.02134(13) 0.0214(3) 0.25000 0.0984 Uani
C7 C 0.02292(21) 0.04584(15) 0.25000 0.0933 Uani
O1 O -0.2511(5) 0.1077(6) 0.3035(9) 0.1290 Uiso
O2 O -0.2337(3) 0.0730(3) 0.2597(4) 0.1353 Uani
O3 O -0.1239(3) 0.1161(2) 0.2136(2) 0.2140 Uani
N1 N -0.4142(11) -0.0926(8) 0.3295(7) 0.1853 Uani
N2 N -0.4589(6) -0.1764(4) 0.4740(5) 0.0973 Uani
N3 N 0.0427(3) 0.0854(2) 0.25000 0.0930 Uani
C8 C -0.5855(4) -0.2585(3) 0.3156(3) 0.0902 Uani
C9 C -0.54513(28) -0.2257(2) 0.3410(2) 0.1014 Uani
C10 C -0.5123 -0.2032 0.3111 0.1916 Uani
H3 H -0.5129 -0.2109 0.2814 0.2320 Uiso
C11 C -0.4757 -0.165 0.3318 0.2450 Uani
H4 H -0.4556 -0.1431 0.315 0.2940 Uiso
C12 C -0.4751(3) -0.1659(2) 0.3804(3) 0.1154 Uani
C13 C -0.5116 -0.1903 0.4105 0.2360 Uani
H5 H -0.5121 -0.1873 0.4413 0.2860 Uiso
C14 C -0.5480 -0.2212 0.3812 0.2239 Uani
H6 H -0.5737 -0.2374 0.3948 0.2710 Uiso
C15 C -0.4343(3) -0.1335(2) 0.4015(3) 0.1184 Uani
C16 C -0.4077(3) -0.0976(2) 0.3745(3) 0.1210 Uani
C17 C -0.3693(3) -0.0674(2) 0.3975(3) 0.1230 Uani
C18 C -0.3584(4) -0.0724(2) 0.4423(3) 0.1288 Uani
C19 C -0.3869(3) -0.1088(2) 0.4676(3) 0.1102 Uani
C20 C -0.4256(4) -0.1402(3) 0.4472(3) 0.1347 Uani
C21 C -0.3397(4) -0.0303(2) 0.3725(3) 0.1241 Uani
C22 C -0.3494(6) -0.0056(4) 0.3512(5) 0.2871 Uani
H7 H -0.3766 -0.0108 0.3516 0.3460 Uiso
C23 C -0.3170(6) 0.0307(4) 0.3263(5) 0.2511 Uani
H8 H -0.3245 0.0482 0.3119 0.3030 Uiso
C24 C -0.2819(4) 0.0386(3) 0.3238(3) 0.1220 Uani
C25 C -0.2678(6) 0.0189(4) 0.3526(5) 0.2234 Uani
H9 H -0.2397 0.0297 0.358 0.2680 Uiso
C26 C -0.2996(7) -0.0200(5) 0.3741(6) 0.3327 Uani
H10 H -0.2918 -0.0371 0.3886 0.3990 Uiso
C27 C -0.2492(4) 0.0777(2) 0.2996(4) 0.1037 Uani
C28 C -0.3431(4) -0.1323(3) 0.6442(3) 0.0963 Uani
C29 C -0.3538(4) -0.1254(3) 0.5956(3) 0.1011 Uani
C30 C -0.3755(4) -0.1135(3) 0.5137(3) 0.1142 Uani
C31 C -0.3905(7) -0.1218(5) 0.5944(5) 0.1067 Uani
H11 H -0.4059 -0.1238 0.6197 0.1280 Uiso
C32 C -0.4015(6) -0.1147(5) 0.5495(6) 0.1020 Uani
H12 H -0.4242 -0.1111 0.5446 0.1230 Uiso
C33 C -0.3432(7) -0.1163(6) 0.5225(6) 0.1048 Uani
H13 H -0.3272 -0.1155 0.4983 0.1260 Uiso
C34 C -0.3298(7) -0.1203(5) 0.5636(6) 0.1014 Uani
H14 H -0.3045 -0.1193 0.5677 0.1220 Uiso
O4 O -0.6667 -0.3333 0.25000 0.0629 Uani
O5 O -0.5884(4) -0.2506(3) 0.2708(3) 0.1133 Uani
O6 O -0.16657(7) 0.16656(13) 0.25000 0.0658 Uani
O7 O -0.3640(3) -0.1280(2) 0.6762(2) 0.0591 Uani
O8 O -0.3599(6) -0.1756(4) 0.6503(4) 0.1660 Uiso
Zn1 Zn -0.62128(5) -0.28171(4) 0.22271(4) 0.0629 Uani
Zn2 Zn -0.6667 -0.3334 0.18918(7) 0.0572 Uani
Zn3 Zn -0.18949(7) 0.11227(5) 0.22446(6) 0.1069 Uani
Zn4 Zn -0.13939(4) 0.15771(3) 0.19895(3) 0.0422 Uani
N4 N -0.3157(7) -0.0441(5) 0.4589(7) 0.1511 Uani
O9 O -0.6148(3) -0.2868(3) 0.3326(3) 0.0860 Uani
C3B C -0.0703(5) 0.0875(6) 0.2873(4) 0.2936 Uani
C4B C -0.0443(4) 0.0663(6) 0.2845(4) 0.2664 Uani
C6C C 0.04274(33) 0.02134(13) 0.25000 0.0984 Uani
C7A C -0.04584(15) -0.02292(26) 0.25000 0.0933 Uani
O3B O -0.1161(2) 0.1239(3) 0.2864(2) 0.2140 Uani
Zn1A Zn -0.71829(4) -0.33957(6) 0.22271(4) 0.0629 Uani
Zn1B Zn -0.71829(4) -0.37872(5) 0.27729(4) 0.0629 Uani
Zn1C Zn -0.66043(6) -0.37872(5) 0.22271(4) 0.0629 Uani
Zn1D Zn -0.62128(5) -0.33957(6) 0.27729(4) 0.0629 Uani
Zn1E Zn -0.66043(6) -0.28171(4) 0.27729(4) 0.0629 Uani
Zn2B Zn -0.6666 -0.3333 0.31082(7) 0.0572 Uani
Zn3B Zn -0.11227(5) 0.18949(7) 0.27554(6) 0.1069 Uani
Zn4B Zn -0.15771(3) 0.13939(4) 0.30105(3) 0.0422 Uani
O9B O -0.7132(3) -0.3852(3) 0.1674(3) 0.0860 Uani
O9D O -0.6148(3) -0.3280(4) 0.1674(3) 0.0860 Uani
O9E O -0.6720(4) -0.2868(3) 0.1674(3) 0.0860 Uani
C35 C 0.77748(14) 0.5550(3) 0.25000 0.0902 Uani
C36 C 0.75533(13) 0.5107(3) 0.25000 0.0901 Uani
C37 C 0.7202(4) 0.4902(3) 0.2345(6) 0.2964 Uani
H15 H 0.7089 0.5048 0.2209 0.3560 Uiso
C38 C 0.6938(6) 0.4435(4) 0.2355(6) 0.3131 Uani
H16 H 0.6662 0.4299 0.2263 0.3750 Uiso
C39 C 0.71163(17) 0.4233(3) 0.25000 0.1307 Uani
C40 C 0.68802(15) 0.3760(3) 0.25000 0.1207 Uani
C41 C 0.70954(21) 0.35477(15) 0.25000 0.1236 Uani
O10 O 0.7693(3) 0.5733(4) 0.2183(4) 0.1200 Uiso
N5 N 0.7458 0.3729 0.25000 0.4089 Uani
C37E C 0.7700(5) 0.4902(3) 0.2655(6) 0.2964 Uani
C38E C 0.7497(7) 0.4435(4) 0.2645(6) 0.3131 Uani
C40C C 0.68798(34) 0.31198(15) 0.25000 0.1207 Uani
C41A C 0.64523(15) 0.35477(26) 0.25000 0.1236 Uani
O10E O 0.8040(5) 0.5733(4) 0.2817(4) 0.1200 Uiso
loop_
_atom_site_aniso_label
_atom_site_aniso_U_11
_atom_site_aniso_U_22
_atom_site_aniso_U_33
_atom_site_aniso_U_23
_atom_site_aniso_U_13
_atom_site_aniso_U_12
C1 0.058 0.058 0.147 0 0 0.03
C2 0.098 0.098 0.088 -0.011 -0.011 0.059
C3 0.487 0.41 0.178 -0.127 -0.116 0.37
C4 0.406 0.392 0.162 -0.137 -0.152 0.32
C5 0.097 0.096 0.097 -0.008 -0.008 0.058
C6 0.103 0.103 0.114 0.012 0.012 0.07
C7 0.061 0.118 0.12 4.08502e-19 0.003 0.059
O2 0.154 0.168 0.106 0.005 0.015 0.097
O3 0.316 0.26 0.162 -0.031 -0.092 0.216
N1 0.21 0.24 0.076 0.034 -0.037 0.09
N2 0.07 0.083 0.096 0.032 0.016 0.006
N3 0.12 0 0.119 2.04251e-19 0.001 1.40505e-17
C8 0.088 0.063 0.104 -0.015 0 0.026
C9 0.08 0.073 0.147 0.001 -0.021 0.035
C10 0.117 0.22 0.128 0.079 0.046 0.002
C11 0.34 0.2 0.055 -0.006 -0.062 0.03
C12 0.11 0.093 0.109 0.012 -0.012 0.025
C13 0.26 0.169 0.104 0.011 0.017 -0.024
C14 0.33 0.27 0.085 -0.071 -0.052 0.16
C15 0.101 0.131 0.102 -0.013 -0.032 0.042
C16 0.086 0.062 0.175 0.011 1.63401e-18 0.007
C17 0.108 0.1 0.121 0.026 0.005 0.022
C18 0.172 0.12 0.089 0.034 0.008 0.069
C19 0.109 0.095 0.1 0.008 -0.016 0.031
C20 0.142 0.162 0.1 -0.02 -0.048 0.076
C21 0.103 0.108 0.139 0.035 0.015 0.036
C22 0.239 0.224 0.42 0.182 0.076 0.132
C23 0.17 0.208 0.38 0.149 0.074 0.098
C24 0.108 0.12 0.158 0.047 0.011 0.072
C25 0.177 0.167 0.305 0.072 0.05 0.07
C26 0.149 0.28 0.53 0.195 0.11 0.078
C27 0.11 0.061 0.107 0.011 0.039 0.018
C28 0.095 0.096 0.081 0.031 -0.002 0.035
C29 0.097 0.112 0.082 -0.001 -0.023 0.043
C30 0.124 0.105 0.088 0.024 -0.026 0.038
C31 0.099 0.143 0.096 0.014 -0.009 0.074
C32 0.07 0.159 0.09 0.002 0.016 0.067
C33 0.075 0.156 0.089 0.034 -0.001 0.062
C34 0.081 0.129 0.075 0.023 0.021 0.038
O4 0.061 0.061 0.067 0 0 0.0307
O5 0.105 0.129 0.076 0.01 -0.02 0.036
O6 0.066 0.0656 0.061 -0.004 -0.004 0.0293
O7 0.061 0.084 0.04 -0.005 0 0.042
Zn1 0.0602 0.0612 0.0668 0.0033 -0.0006 0.03
Zn2 0.0567 0.0567 0.0582 0 0 0.0283
Zn3 0.1071 0.1057 0.1079 0.0007 0.0014 0.0532
Zn4 0.0441 0.0458 0.0405 -0.0012 0.0003 0.0254
N4 0.078 0.125 0.16 0.021 -0.042 -0.017
O9 0.083 0.085 0.074 0.01 0.008 0.03
C3B 0.41 0.487 0.178 -0.116 -0.127 0.37
C4B 0.392 0.406 0.162 -0.152 -0.137 0.32
C6C 0.066(6) 0.103(6) 0.114(9) -0.012(5) 0 0.033(3)
C7A 0.118 0.061 0.12 0.003 -4.08502e-19 0.059
O3B 0.26 0.316 0.162 -0.092 -0.031 0.216
Zn1A 0.0612 0.0614 0.0668 -0.0039 -0.0033 0.0312
Zn1B 0.0612 0.0602 0.0668 -0.0006 0.0033 0.03
Zn1C 0.0614 0.0602 0.0668 0.0006 0.0039 0.0302
Zn1D 0.0602 0.0614 0.0668 0.0039 0.0006 0.0302
Zn1E 0.0614 0.0612 0.0668 -0.0033 -0.0039 0.0312
Zn2B 0.0567 0.0567 0.0582 0 0 0.0283
Zn3B 0.1057 0.1071 0.1079 0.0014 0.0007 0.0532
Zn4B 0.0458 0.0441 0.0405 0.0003 -0.0012 0.0254
O9B 0.085 0.083 0.074 0.008 0.01 0.03
O9D 0.083 0.108 0.074 0.002 -0.008 0.053
O9E 0.108 0.085 0.074 -0.01 -0.002 0.055
C35 0.09 0.089 0.092 0 -0.011 0.045
C36 0.086 0.04 0.129 0 -0.012 0.02
C37 0.163 0.094 0.58 0.04 -0.105 0.025
C38 0.202 0.19 0.57 0.021 -0.104 0.115
C39 0.098 0.08 0.208 0 -0.003 0.04
C40 0.096 0.085 0.178 0 0.018 0.043
C41 0.08 0.07 0.224 0.001 -2.04251e-19 0.04
N5 0.08 0.31 0.76 0.05 -6.53603e-18 0.04
C37E 0.207 0.094 0.58 -0.04 -0.145 0.069
C38E 0.162 0.19 0.57 -0.021 -0.125 0.075
C40C 0.096 0.095 0.178 -0.018 -0.018 0.053
C41A 0.070(5) 0.070(5) 0.224(13) -0.001(6) -0.001(6) 0.030(6)
loop_
_geom_bond_atom_site_label_1
_geom_bond_atom_site_label_2
_geom_bond_site_symmetry_1
_geom_bond_site_symmetry_2
C1 C2 1_555 1_555
C2 C3 1_555 1_555
C3 H1 1_555 1_555
C4 C3 1_555 1_555
H2 C4 1_555 1_555
C5 C4 1_555 1_555
C6 C5 1_555 1_555
C7 C6 1_555 1_555
O1 O2 1_555 1_555
O2 C27 1_555 1_555
O3 C1 1_555 1_555
N1 C16 1_555 1_555
N2 C20 1_555 1_555
N3 C7 1_555 1_555
C8 C9 1_555 1_555
C9 C10 1_555 1_555
C10 H3 1_555 1_555
C11 C10 1_555 1_555
H4 C11 1_555 1_555
C12 C11 1_555 1_555
C13 C12 1_555 1_555
H5 C13 1_555 1_555
C14 C9 1_555 1_555
H6 C14 1_555 1_555
C15 C12 1_555 1_555
C16 C15 1_555 1_555
C17 C16 1_555 1_555
C18 C17 1_555 1_555
C19 C18 1_555 1_555
C20 C15 1_555 1_555
C21 C17 1_555 1_555
C22 C21 1_555 1_555
H7 C22 1_555 1_555
C23 C22 1_555 1_555
H8 C23 1_555 1_555
C24 C23 1_555 1_555
C25 C24 1_555 1_555
H9 C25 1_555 1_555
C26 C21 1_555 1_555
H10 C26 1_555 1_555
C27 O1 1_555 1_555
C28 C29 1_555 1_555
C29 C31 1_555 1_555
C30 C19 1_555 1_555
C31 H11 1_555 1_555
C32 C30 1_555 1_555
H12 C32 1_555 1_555
C33 C30 1_555 1_555
H13 C33 1_555 1_555
C34 C29 1_555 1_555
H14 C34 1_555 1_555
O4 Zn1 1_555 1_555
O5 C8 1_555 1_555
O6 Zn3 1_555 1_555
O7 C28 1_555 1_555
O8 C28 1_555 1_555
Zn1 O5 1_555 1_555
Zn2 O4 1_555 1_555
Zn3 O2 1_555 1_555
Zn4 O3 1_555 1_555
N4 C18 1_555 1_555
O9 C8 1_555 1_555
C35 C36 1_555 1_555
C36 C37 1_555 1_555
C37 H15 1_555 1_555
C38 C37 1_555 1_555
H16 C38 1_555 1_555
C39 C38 1_555 1_555
C40 C39 1_555 1_555
C41 C40 1_555 1_555
O10 C35 1_555 1_555
N5 C41 1_555 1_555
C3B C2 1_555 1_555
C4B C5 1_555 1_555
C6C C7 1_555 1_555
C7A C6 1_555 1_555
O3B C1 1_555 1_555
Zn1A O4 1_555 1_555
Zn1B O4 1_555 1_555
Zn1C O4 1_555 1_555
Zn1D O4 1_555 1_555
Zn1E O4 1_555 1_555
Zn2B O4 1_555 1_555
Zn3B O6 1_555 1_555
Zn4B O6 1_555 1_555
O9B Zn2 1_555 1_555
O9D Zn2 1_555 1_555
O9E Zn2 1_555 1_555
C37E C36 1_555 1_555
C38E C39 1_555 1_555
C40C C41 1_555 1_555
C41A C40 1_555 1_555
O10E C35 1_555 1_555
O3 O3B 1_555 1_555
C13 C14 1_555 1_555
C19 C20 1_555 1_555
C24 C27 1_555 1_555
C25 C26 1_555 1_555
C31 C32 1_555 1_555
C33 C34 1_555 1_555
O5 O9 1_555 1_555
O6 Zn4 1_555 1_555
O7 O8 1_555 1_555
Zn1 Zn2 1_555 1_555
Zn1 Zn1E 1_555 1_555
Zn2 Zn1A 1_555 1_555
Zn2 Zn1C 1_555 1_555
Zn3 Zn4 1_555 1_555
O9 Zn2B 1_555 1_555
C3B C4B 1_555 1_555
O3B Zn4B 1_555 1_555
Zn1A Zn1B 1_555 1_555
Zn1B Zn2B 1_555 1_555
Zn1C Zn1D 1_555 1_555
Zn1D Zn2B 1_555 1_555
Zn1E Zn2B 1_555 1_555
Zn3B Zn4B 1_555 1_555
C37E C38E 1_555 1_555

#END
