
#######################################################################
#
#                 Cambridge Crystallographic Data Centre
#                                CCDC 
#
#######################################################################
#
# If this CIF has been generated from an entry in the Cambridge 
# Structural Database, then it will include bibliographic, chemical, 
# crystal, experimental, refinement or atomic coordinate data resulting 
# from the CCDC's data processing and validation procedures.
#
#######################################################################

data_QUKYOL
_chemical_formula_moiety         '(C12 H28 Cu2 La2 N2 O26 P2)n'
_symmetry_cell_setting           monoclinic
_symmetry_space_group_name_H-M   'P 21/c'
_symmetry_Int_Tables_number      14
_space_group_name_Hall           '-P 2ybc'
loop_
_symmetry_equiv_pos_site_id
_symmetry_equiv_pos_as_xyz
1 x,y,z
2 -x,1/2+y,1/2-z
3 -x,-y,-z
4 x,1/2-y,1/2+z
_cell_length_a                   8.3028(3)
_cell_length_b                   20.6398(8)
_cell_length_c                   9.4630(4)
_cell_angle_alpha                90
_cell_angle_beta                 109.867(2)
_cell_angle_gamma                90
_cell_volume                     1525.14
loop_
_atom_site_label
_atom_site_type_symbol
_atom_site_fract_x
_atom_site_fract_y
_atom_site_fract_z
Cu1 Cu 0.96315(6) 0.29679(2) 1.05105(5)
La1 La 1.62315(2) 0.351610(10) 1.60107(2)
P1 P 0.79087(12) 0.30018(5) 1.30559(11)
C1 C 1.2192(5) 0.31048(19) 1.3225(4)
C2 C 1.1430(5) 0.37854(19) 1.2922(4)
H1 H 1.2207 0.4070 1.2608
H2 H 1.1328 0.3965 1.3858
C3 C 0.9440(5) 0.43223(18) 1.0637(4)
H3 H 0.8938 0.4698 1.0989
H4 H 1.0549 0.4458 1.0557
C4 C 0.8235(5) 0.40997(19) 0.9107(4)
C5 C 0.8294(5) 0.37823(18) 1.2363(4)
H5 H 0.8570 0.4096 1.3196
H6 H 0.7229 0.3926 1.1575
C6 C 1.4308(4) 0.49757(18) 1.5381(4)
N1 N 0.9713(4) 0.37787(15) 1.1727(3)
O1 O 1.1575(3) 0.26709(13) 1.2217(3)
O2 O 1.3416(3) 0.30071(14) 1.4411(3)
O3 O 0.8007(3) 0.34824(13) 0.8912(3)
O4 O 0.7552(3) 0.44890(13) 0.8092(3)
O5 O 0.6433(3) 0.30949(13) 1.3637(3)
O6 O 0.9565(3) 0.28094(13) 1.4351(3)
O7 O 0.7516(3) 0.25580(13) 1.1697(3)
O8 O 1.9516(3) 0.36853(15) 1.6489(3)
H7 H 2.0106 0.3606 1.7400
H8 H 2.0043 0.3525 1.5942
O9 O 1.4564(3) 0.30881(14) 1.7643(3)
H9 H 1.4845 0.2740 1.8147
H10 H 1.3478 0.3115 1.7337
O10 O 1.4087(3) 0.44262(13) 1.5877(3)
O11 O 1.3501(4) 0.54802(14) 1.5433(3)
O14 O 1.1955(4) 0.34616(17) 0.9491(4)
H14 H 1.1131 0.3698 0.9164
H15 H 1.2132 0.3231 0.8840
Cu1C Cu 0.96315(6) 0.20321(2) 0.55105(5)
Cu1C_2 Cu 0.96315(6) 0.20321(2) 1.55105(5)
La1C La 1.62315(2) 0.148390(10) 1.10107(2)
La1_2 La 0.62315(2) 0.351610(10) 0.60107(2)
La1_3 La 0.62315(2) 0.351610(10) 1.60107(2)
La1C_2 La 0.62315(2) 0.148390(10) 1.10107(2)
La1B La 1.37685(2) 0.648390(10) 1.39893(2)
La1C_3 La 0.62315(2) 0.148390(10) 0.10107(2)
P1C P 0.79087(12) 0.19982(5) 0.80559(11)
C1C C 1.2192(5) 0.18952(19) 0.8225(4)
C2C C 1.1430(5) 0.12146(19) 0.7922(4)
H1C H 1.2207 0.0930 0.7608
H2C H 1.1328 0.1035 0.8858
C3C C 0.9440(5) 0.06777(18) 0.5637(4)
H3C H 0.8938 0.0302 0.5989
H4C H 1.0549 0.0542 0.5557
C4C C 0.8235(5) 0.09003(19) 0.4107(4)
C5C C 0.8294(5) 0.12177(18) 0.7363(4)
H5C H 0.8570 0.0904 0.8196
H6C H 0.7229 0.1074 0.6575
C6B C 1.5692(4) 0.50243(18) 1.4619(4)
N1C N 0.9713(4) 0.12213(15) 0.6727(3)
O1C O 1.1575(3) 0.23291(13) 0.7217(3)
O2C O 1.3416(3) 0.19929(14) 0.9411(3)
O3C O 0.8007(3) 0.15176(13) 0.3912(3)
O3_2 O 1.8007(3) 0.34824(13) 1.8912(3)
O3C_2 O 1.8007(3) 0.15176(13) 1.3912(3)
O4C O 0.7552(3) 0.05110(13) 0.3092(3)
O4_2 O 1.7552(3) 0.44890(13) 1.8092(3)
O4C_2 O 1.7552(3) 0.05110(13) 1.3092(3)
O5C O 0.6433(3) 0.19051(13) 0.8637(3)
O5_2 O 1.6433(3) 0.30949(13) 1.3637(3)
O5C_2 O 1.6433(3) 0.19051(13) 0.8637(3)
O6C O 0.9565(3) 0.21906(13) 0.9351(3)
O6_2 O 0.9565(3) 0.28094(13) 0.4351(3)
O7C O 0.7516(3) 0.24420(13) 0.6697(3)
O7C_2 O 1.7516(3) 0.24420(13) 1.6697(3)
O7_2 O 1.7516(3) 0.25580(13) 1.1697(3)
O8C O 1.9516(3) 0.13147(15) 1.1489(3)
H7C H 2.0106 0.1394 1.2400
H8C H 2.0043 0.1475 1.0942
O9C O 1.4564(3) 0.19119(14) 1.2643(3)
H9C H 1.4845 0.2260 1.3147
H10C H 1.3478 0.1885 1.2337
O10B O 1.5913(3) 0.55738(13) 1.4123(3)
O10C O 1.4087(3) 0.05738(13) 1.0877(3)
O11B O 1.6499(4) 0.45198(14) 1.4567(3)
O11A O 1.6499(4) 0.04802(14) 0.9567(3)
O14C O 1.1955(4) 0.15384(17) 0.4491(4)
H14C H 1.1131 0.1302 0.4164
H15C H 1.2132 0.1769 0.3840
O12 O 0.0000 0.5000 0.5000
H11 H 0.0899 0.5169 0.4922
H11B H -0.0899 0.4831 0.5078
O15 O 0.3796(7) 0.0415(3) 0.4029(6)
H16 H 0.4045 0.0494 0.3246
H17 H 0.3724 0.0775 0.4438
loop_
_geom_bond_atom_site_label_1
_geom_bond_atom_site_label_2
_geom_bond_site_symmetry_1
_geom_bond_site_symmetry_2
Cu1 N1 1_555 1_555
La1 O2 1_555 1_555
P1 C5 1_555 1_555
C1 C2 1_555 1_555
C2 H1 1_555 1_555
H2 C2 1_555 1_555
C3 H3 1_555 1_555
H4 C3 1_555 1_555
C4 C3 1_555 1_555
C5 H5 1_555 1_555
H6 C5 1_555 1_555
C6 O10 1_555 1_555
N1 C2 1_555 1_555
O1 Cu1 1_555 1_555
O2 C1 1_555 1_555
O3 Cu1 1_555 1_555
O4 C4 1_555 1_555
O5 P1 1_555 1_555
O6 P1 1_555 1_555
O7 Cu1 1_555 1_555
O8 La1 1_555 1_555
H7 O8 1_555 1_555
H8 O8 1_555 1_555
O9 La1 1_555 1_555
H9 O9 1_555 1_555
H10 O9 1_555 1_555
O10 La1 1_555 1_555
O11 C6 1_555 1_555
O12 H11 1_555 1_555
O14 Cu1 1_555 1_555
H14 O14 1_555 1_555
H15 O14 1_555 1_555
O15 H16 1_555 1_555
H17 O15 1_555 1_555
Cu1C N1C 1_555 1_555
Cu1C_2 O6 1_555 1_555
La1C O2C 1_555 1_555
La1_2 O3 1_555 1_555
La1_3 O5 1_555 1_555
La1C_2 O7 1_555 1_555
La1B O11 1_555 1_555
La1C_3 O3C 1_555 1_555
P1C C5C 1_555 1_555
C1C C2C 1_555 1_555
C2C H1C 1_555 1_555
H2C C2C 1_555 1_555
C3C H3C 1_555 1_555
H4C C3C 1_555 1_555
C4C C3C 1_555 1_555
C5C H5C 1_555 1_555
H6C C5C 1_555 1_555
C6B C6 1_555 1_555
N1C C2C 1_555 1_555
O1C Cu1C 1_555 1_555
O2C C1C 1_555 1_555
O3C Cu1C 1_555 1_555
O3_2 La1 1_555 1_555
O3C_2 La1C 1_555 1_555
O4C La1C_3 1_555 1_555
O4_2 La1 1_555 1_555
O4C_2 La1C 1_555 1_555
O5C La1C_2 1_555 1_555
O5_2 La1 1_555 1_555
O5C_2 La1C 1_555 1_555
O6C Cu1 1_555 1_555
O6_2 Cu1C 1_555 1_555
O7C Cu1C 1_555 1_555
O7C_2 La1 1_555 1_555
O7_2 La1C 1_555 1_555
O8C La1C 1_555 1_555
H7C O8C 1_555 1_555
H8C O8C 1_555 1_555
O9C La1C 1_555 1_555
H9C O9C 1_555 1_555
H10C O9C 1_555 1_555
O10B La1B 1_555 1_555
O10C La1C 1_555 1_555
O11B La1 1_555 1_555
O11A La1C 1_555 1_555
H11B O12 1_555 1_555
O14C Cu1C 1_555 1_555
H14C O14C 1_555 1_555
H15C O14C 1_555 1_555
P1 O7 1_555 1_555
C1 O1 1_555 1_555
C3 N1 1_555 1_555
C4 O3 1_555 1_555
C5 N1 1_555 1_555
O4 La1_2 1_555 1_555
La1_2 O7C 1_555 1_555
P1C O5C 1_555 1_555
P1C O6C 1_555 1_555
P1C O7C 1_555 1_555
C1C O1C 1_555 1_555
C3C N1C 1_555 1_555
C4C O3C 1_555 1_555
C4C O4C 1_555 1_555
C5C N1C 1_555 1_555
C6B O10B 1_555 1_555
C6B O11B 1_555 1_555

#END
