
#######################################################################
#
#                 Cambridge Crystallographic Data Centre
#                                CCDC 
#
#######################################################################
#
# If this CIF has been generated from an entry in the Cambridge 
# Structural Database, then it will include bibliographic, chemical, 
# crystal, experimental, refinement or atomic coordinate data resulting 
# from the CCDC's data processing and validation procedures.
#
#######################################################################

data_HOHJAR
_chemical_formula_moiety         '(C26 H19 Fe2 N5 O9)n'
_symmetry_cell_setting           triclinic
_symmetry_space_group_name_H-M   'P -1'
_symmetry_Int_Tables_number      2
_space_group_name_Hall           '-P 1'
loop_
_symmetry_equiv_pos_site_id
_symmetry_equiv_pos_as_xyz
1 x,y,z
2 -x,-y,-z
_cell_length_a                   10.4839(18)
_cell_length_b                   11.840(3)
_cell_length_c                   14.034(2)
_cell_angle_alpha                105.645(11)
_cell_angle_beta                 101.222(9)
_cell_angle_gamma                112.358(5)
_cell_volume                     1462.45
loop_
_atom_site_label
_atom_site_type_symbol
_atom_site_fract_x
_atom_site_fract_y
_atom_site_fract_z
Fe1 Fe -0.18612(3) 1.00651(2) -0.214139(18)
Fe2 Fe -0.55220(3) 0.72517(2) -0.308615(18)
N1 N 0.04902(18) 1.06856(16) -0.15900(12)
C1 C 0.1111(2) 1.10811(18) -0.05513(14)
H1 H 0.0513 1.1043 -0.0138
C2 C 0.2596(2) 1.15451(18) -0.00573(14)
C3 C 0.3493(2) 1.1590(2) -0.06714(15)
H2 H 0.4498 1.1923 -0.0367
C4 C 0.1357(2) 1.0692(2) -0.21787(15)
H3 H 0.0939 1.0396 -0.2903
C5 C 0.2843(2) 1.1119(2) -0.17603(16)
H4 H 0.3403 1.1093 -0.2197
O1 O 0.44759(14) 1.25845(13) 0.16001(10)
O2 O 0.21583(15) 1.14511(14) 0.15080(10)
N2 N -0.72588(18) 0.74846(16) -0.24784(12)
C6 C 0.3120(2) 1.18928(18) 0.11118(14)
C7 C -0.6945(2) 0.79991(19) -0.14373(14)
H5 H -0.5996 0.8292 -0.1009
C8 C -0.7956(2) 0.81208(18) -0.09595(14)
C9 C -0.9361(2) 0.77301(19) -0.15917(14)
H6 H -1.0063 0.7802 -0.1299
N3 N -0.16336(18) 1.16589(16) -0.27049(12)
C10 C -0.2400(2) 1.13734(19) -0.36964(14)
H7 H -0.2953 1.0491 -0.4144
C11 C -0.0764(3) 1.3948(2) -0.24012(17)
H8 H -0.0186 1.4822 -0.1943
C12 C -0.0827(2) 1.2936(2) -0.20701(15)
H9 H -0.0291 1.3148 -0.1381
C13 C -0.2405(2) 1.23289(19) -0.40842(14)
C14 C -0.1565(3) 1.3649(2) -0.34178(16)
H10 H -0.1544 1.4317 -0.3653
O3 O -0.42541(14) 0.94110(13) -0.25753(10)
O4 O -0.60323(15) 0.30250(13) -0.61835(11)
O5 O -0.84115(15) 0.87205(14) 0.06435(10)
O6 O -0.78934(15) 0.11131(13) -0.63973(10)
O7 O -0.33498(16) 1.28485(14) -0.54821(10)
O8 O -0.39931(19) 1.07212(15) -0.57653(12)
N4 N -0.67302(18) 0.51021(16) -0.36559(12)
O9 O -0.61211(16) 0.91699(18) 0.07018(11)
C15 C -0.6653(2) 0.43986(18) -0.45485(14)
H11 H -0.6142 0.4853 -0.4909
C16 C -0.7451(2) 0.87117(19) 0.02246(14)
C17 C -0.7050(2) 0.23382(18) -0.59311(13)
C18 C -0.8627(2) 0.7106(2) -0.30849(14)
H12 H -0.8868 0.6748 -0.3810
C19 C -0.9693(2) 0.7227(2) -0.26769(15)
H13 H -1.0619 0.6975 -0.3122
C20 C -0.3326(2) 1.19203(19) -0.52058(14)
C21 C -0.7292(2) 0.30341(19) -0.49636(14)
C22 C -0.7485(3) 0.4438(2) -0.31528(17)
H14 H -0.7546 0.4911 -0.2531
C23 C -0.8096(3) 0.2355(2) -0.44433(18)
H15 H -0.8567 0.1437 -0.4709
C24 C -0.8181(3) 0.3071(2) -0.3523(2)
H16 H -0.8702 0.2640 -0.3155
Fe1A Fe -0.81388(3) -0.00651(2) -0.785861(18)
Fe1A_2 Fe -0.81388(3) 0.99349(2) 0.214139(18)
Fe1A_3 Fe 0.18612(3) 0.99349(2) 0.214139(18)
Fe2A Fe -0.44780(3) 0.27483(2) -0.691385(18)
Fe2A_2 Fe -0.44780(3) 1.27483(2) -0.691385(18)
Fe2A_3 Fe 0.55220(3) 1.27483(2) 0.308615(18)
O1A O -0.44759(14) 0.74155(13) -0.16001(10)
O2A O -0.21583(15) 0.85489(14) -0.15080(10)
O4A O -0.39677(15) 0.69750(13) -0.38165(11)
O5A O -0.15885(15) 1.12795(14) -0.06435(10)
O6A O -0.21066(15) 0.88869(13) -0.36027(10)
O7A O -0.66502(16) 0.71515(14) -0.45179(10)
C25 C 0.6694(8) 1.4856(6) -0.0397(6)
N5 N 0.7302(7) 1.5005(8) 0.0428(5)
C26 C 0.5926(9) 1.4594(7) -0.1436(5)
H17 H 0.5692 1.5299 -0.1452
H18 H 0.5040 1.3779 -0.1700
H19 H 0.6523 1.4524 -0.1866
loop_
_geom_bond_atom_site_label_1
_geom_bond_atom_site_label_2
_geom_bond_site_symmetry_1
_geom_bond_site_symmetry_2
Fe1 N1 1_555 1_555
Fe2 N2 1_555 1_555
N1 C1 1_555 1_555
C1 H1 1_555 1_555
C2 C1 1_555 1_555
C3 C2 1_555 1_555
H2 C3 1_555 1_555
C4 N1 1_555 1_555
H3 C4 1_555 1_555
C5 C3 1_555 1_555
H4 C5 1_555 1_555
O1 C6 1_555 1_555
O2 C6 1_555 1_555
N2 C7 1_555 1_555
C6 C2 1_555 1_555
C7 H5 1_555 1_555
C8 C7 1_555 1_555
C9 C8 1_555 1_555
H6 C9 1_555 1_555
N3 Fe1 1_555 1_555
C10 N3 1_555 1_555
H7 C10 1_555 1_555
C11 H8 1_555 1_555
C12 N3 1_555 1_555
H9 C12 1_555 1_555
C13 C10 1_555 1_555
C14 C11 1_555 1_555
H10 C14 1_555 1_555
O3 Fe1 1_555 1_555
O4 C17 1_555 1_555
O5 C16 1_555 1_555
O6 C17 1_555 1_555
O7 C20 1_555 1_555
O8 C20 1_555 1_555
N4 Fe2 1_555 1_555
O9 C16 1_555 1_555
C15 N4 1_555 1_555
H11 C15 1_555 1_555
C16 C8 1_555 1_555
C17 C21 1_555 1_555
C18 N2 1_555 1_555
H12 C18 1_555 1_555
C19 C9 1_555 1_555
H13 C19 1_555 1_555
C20 C13 1_555 1_555
C21 C15 1_555 1_555
C22 N4 1_555 1_555
H14 C22 1_555 1_555
C23 C21 1_555 1_555
H15 C23 1_555 1_555
C24 C22 1_555 1_555
H16 C24 1_555 1_555
C25 N5 1_555 1_555
C26 C25 1_555 1_555
H17 C26 1_555 1_555
H18 C26 1_555 1_555
H19 C26 1_555 1_555
Fe1A O6 1_555 1_555
Fe1A_2 O5 1_555 1_555
Fe1A_3 O2 1_555 1_555
Fe2A O4 1_555 1_555
Fe2A_2 O7 1_555 1_555
Fe2A_3 O1 1_555 1_555
O1A Fe2 1_555 1_555
O2A Fe1 1_555 1_555
O4A Fe2 1_555 1_555
O5A Fe1 1_555 1_555
O6A Fe1 1_555 1_555
O7A Fe2 1_555 1_555
Fe2 O3 1_555 1_555
C4 C5 1_555 1_555
C11 C12 1_555 1_555
C13 C14 1_555 1_555
C18 C19 1_555 1_555
C23 C24 1_555 1_555

#END
