
#######################################################################
#
#                 Cambridge Crystallographic Data Centre
#                                CCDC 
#
#######################################################################
#
# If this CIF has been generated from an entry in the Cambridge 
# Structural Database, then it will include bibliographic, chemical, 
# crystal, experimental, refinement or atomic coordinate data resulting 
# from the CCDC's data processing and validation procedures.
#
#######################################################################

data_LUBMAW
_chemical_formula_moiety         '(C65 H82 N2 Nd2 O34 P4)n'
_symmetry_cell_setting           triclinic
_symmetry_space_group_name_H-M   'P -1'
_symmetry_Int_Tables_number      2
_space_group_name_Hall           '-P 1'
loop_
_symmetry_equiv_pos_site_id
_symmetry_equiv_pos_as_xyz
1 x,y,z
2 -x,-y,-z
_cell_length_a                   9.9462(12)
_cell_length_b                   23.357(7)
_cell_length_c                   23.6035(17)
_cell_angle_alpha                94.998(10)
_cell_angle_beta                 96.626(15)
_cell_angle_gamma                90.668(10)
_cell_volume                     5424.77
loop_
_atom_site_label
_atom_site_type_symbol
_atom_site_fract_x
_atom_site_fract_y
_atom_site_fract_z
C1 C 1.0274(11) 0.2334(4) 0.5404(4)
C2 C 1.1397(12) 0.1904(5) 0.5505(4)
H1 H 1.2184 0.2027 0.5336
H2 H 1.1096 0.1532 0.5314
C3 C 1.1797(10) 0.1843(5) 0.6140(5)
C4 C 1.2519(11) 0.2290(5) 0.6493(6)
H3 H 1.296(9) 0.263(4) 0.637(4)
C5 C 1.2857(13) 0.2254(7) 0.7075(6)
C6 C 1.2431(11) 0.1747(6) 0.7309(5)
H5 H 1.273(9) 0.174(4) 0.775(4)
C7 C 1.1735(10) 0.1313(5) 0.6992(4)
C8 C 1.1226(12) 0.0816(5) 0.7262(5)
H6 H 1.209(8) 0.058(3) 0.748(3)
H7 H 1.092(8) 0.050(3) 0.699(3)
C9 C 1.0062(10) 0.0958(4) 0.7613(4)
C10 C 1.0240(11) 0.0941(4) 0.8200(4)
H8 H 1.102(9) 0.090(4) 0.838(4)
C11 C 0.9213(9) 0.1096(4) 0.8538(4)
C12 C 0.7974(10) 0.1260(4) 0.8250(4)
H9 H 0.727(10) 0.131(4) 0.844(4)
C13 C 0.7779(9) 0.1262(4) 0.7671(4)
C14 C 0.6399(9) 0.1415(5) 0.7380(4)
H10 H 0.5764 0.1448 0.7663
H11 H 0.6077 0.1106 0.7094
C15 C 0.6427(9) 0.1985(4) 0.7088(4)
C16 C 0.6571(11) 0.2501(5) 0.7416(5)
H12 H 0.6592 0.2507 0.7812
C17 C 0.6685(13) 0.3015(6) 0.7170(6)
H13 H 0.686(8) 0.339(4) 0.740(4)
C18 C 0.6672(12) 0.2992(5) 0.6580(6)
H14 H 0.663(9) 0.334(4) 0.640(4)
C19 C 0.6507(10) 0.2484(5) 0.6234(5)
C20 C 0.6568(11) 0.2493(5) 0.5600(4)
H15 H 0.5968 0.2786 0.5457
H16 H 0.6235 0.2125 0.5410
C21 C 0.7970(11) 0.2609(4) 0.5440(4)
C22 C 0.8278(14) 0.3126(6) 0.5243(5)
H17 H 0.779(10) 0.328(4) 0.516(4)
C23 C 0.9558(10) 0.3258(4) 0.5107(4)
C24 C 1.0581(11) 0.2856(4) 0.5202(4)
H18 H 1.183(8) 0.296(3) 0.519(3)
C25 C 0.8996(12) 0.2212(4) 0.5511(4)
C26 C 1.1449(10) 0.1347(4) 0.6405(4)
C27 C 0.8809(10) 0.1101(4) 0.7355(4)
C28 C 0.6360(9) 0.1993(4) 0.6503(4)
O1 O 1.0713(7) 0.0922(3) 0.6060(3)
O2 O 0.8590(6) 0.1061(3) 0.6766(3)
O3 O 0.6264(7) 0.1466(3) 0.6169(3)
O4 O 0.8680(7) 0.1679(3) 0.5674(3)
C29 C 1.1516(16) 0.0452(7) 0.5854(7)
H19 H 1.18(3) 0.016(11) 0.543(11)
H21 H 1.204(10) 0.066(4) 0.561(4)
C30 C 0.4875(13) 0.1255(6) 0.5998(6)
H22 H 0.497(9) 0.082(4) 0.572(4)
H23 H 0.424(13) 0.151(5) 0.578(5)
P1 P 0.9418(2) 0.10199(10) 0.92895(10)
O5 O 1.0821(5) 0.0810(3) 0.9456(2)
O6 O 0.8266(5) 0.0655(3) 0.9445(3)
O7 O 0.9269(7) 0.1646(3) 0.9583(3)
P2 P 0.9932(3) 0.39222(11) 0.48186(12)
O8 O 0.8635(7) 0.4210(3) 0.4650(3)
O9 O 1.0936(7) 0.4286(3) 0.5214(3)
O10 O 1.0644(7) 0.3715(3) 0.4259(3)
C31 C 1.3473(10) -0.2715(4) 0.6018(4)
C32 C 1.2028(11) -0.2580(4) 0.6129(5)
H25 H 1.170(8) -0.244(4) 0.579(4)
H26 H 1.149(7) -0.296(3) 0.606(3)
C33 C 1.1961(9) -0.2232(4) 0.6709(4)
C34 C 1.2054(10) -0.2501(5) 0.7199(5)
H27 H 1.2139 -0.2898 0.7182
C35 C 1.2025(11) -0.2187(5) 0.7734(5)
H28 H 1.204(7) -0.239(3) 0.816(3)
C36 C 1.1901(10) -0.1590(5) 0.7757(4)
H29 H 1.1874 -0.1380 0.8108
C37 C 1.1819(9) -0.1307(4) 0.7261(4)
C38 C 1.1755(9) -0.0665(4) 0.7297(4)
H30 H 1.1506 -0.0544 0.6916
H31 H 1.1059 -0.0540 0.7533
C39 C 1.3112(9) -0.0379(4) 0.7550(4)
C40 C 1.3333(3) -0.01619(15) 0.81274(14)
H32 H 1.2630 -0.0172 0.8354
C41 C 1.4580(3) 0.00667(15) 0.83638(14)
C42 C 1.5654(3) 0.00648(15) 0.80252(14)
H33 H 1.6370 0.0267 0.8193
C43 C 1.5478(3) -0.01470(15) 0.74498(14)
C44 C 1.6662(3) -0.01534(15) 0.70964(14)
H34 H 1.7574 0.0170 0.7327
H35 H 1.6251 -0.0132 0.6639
C45 C 1.7165(3) -0.07408(15) 0.69672(14)
C46 C 1.7939(3) -0.10302(15) 0.73760(14)
H36 H 1.8344 -0.0951 0.7696
C47 C 1.8346(3) -0.15742(15) 0.72655(14)
H37 H 1.8629 -0.1730 0.7546
C48 C 1.7958(3) -0.18743(15) 0.67477(14)
H38 H 1.8211 -0.2254 0.6684
C49 C 1.7193(9) -0.1616(4) 0.6321(4)
C50 C 1.6724(12) -0.1966(5) 0.5745(5)
H39 H 1.772(8) -0.217(3) 0.562(3)
H40 H 1.635(10) -0.178(4) 0.551(4)
C51 C 1.5736(10) -0.2429(4) 0.5821(4)
C52 C 1.6091(10) -0.3011(4) 0.5810(4)
H41 H 1.6966 -0.3108 0.5743
C53 C 1.5207(10) -0.3441(4) 0.5895(4)
C54 C 1.3919(11) -0.3295(4) 0.6006(4)
H42 H 1.320(10) -0.365(4) 0.593(4)
C55 C 1.4372(11) -0.2300(4) 0.5906(4)
C56 C 1.1815(8) -0.1631(4) 0.6735(4)
C57 C 1.4195(10) -0.0357(4) 0.7209(4)
C58 C 1.6825(9) -0.1052(4) 0.6430(4)
O11 O 1.1736(6) -0.1366(3) 0.6236(3)
O12 O 1.3918(7) -0.0538(3) 0.6646(2)
O13 O 1.6058(7) -0.0780(3) 0.6006(3)
O14 O 1.4041(6) -0.1744(3) 0.5866(3)
C59 C 1.0377(12) -0.1290(6) 0.5973(5)
H43 H 1.042(9) -0.104(4) 0.565(4)
H45 H 0.980(12) -0.121(5) 0.637(5)
C60 C 1.6886(16) -0.0460(6) 0.5678(6)
H46 H 1.6318 -0.0253 0.5414
H47 H 1.7463 -0.0194 0.5932
H48 H 1.7432 -0.0720 0.5470
P3 P 1.4885(2) 0.03224(10) 0.91004(10)
O15 O 1.3565(6) 0.0471(3) 0.9310(2)
O16 O 1.5710(5) -0.0120(2) 0.9410(2)
O17 O 1.5757(6) 0.0901(2) 0.9137(2)
P4 P 1.5709(3) -0.41710(12) 0.58718(13)
O18 O 1.6186(13) -0.4309(4) 0.6486(4)
O19 O 1.4581(8) -0.4553(3) 0.5608(4)
O20 O 1.6939(9) -0.4235(3) 0.5532(5)
Nd1 Nd 1.21740(5) 0.01944(2) 1.00192(2)
O21 O 1.2954(7) 0.1218(3) 1.0350(3)
O22 O 1.3241(6) -0.0684(3) 0.9553(3)
C61 C 1.2937(12) -0.1282(5) 0.9476(5)
Nd2 Nd 0.73714(7) 0.50240(3) 0.47953(3)
O23 O 0.7882(11) 0.4968(5) 0.3768(5)
O24 O 0.6008(9) 0.5738(4) 0.4251(5)
C62 C 0.6261(15) 0.6330(6) 0.4173(8)
N1 N 0.9577(7) -0.0479(3) 0.8999(3)
O25 O 1.0079(5) -0.0389(3) 0.9527(2)
O26 O 0.8320(6) -0.0519(3) 0.8909(3)
O27 O 1.0296(6) -0.0522(3) 0.8614(3)
N2 N 0.739(4) 0.479(2) 0.556(3)
O28 O 0.6660(8) 0.4431(3) 0.5577(4)
O29 O 0.8789(10) 0.4874(3) 0.5782(3)
O30 O 0.7699(16) 0.4427(6) 0.6005(12)
Nd1A Nd 0.78260(5) -0.01944(2) 0.99808(2)
Nd2A Nd 1.26286(7) 0.49760(3) 0.52047(3)
Nd1A_2 Nd 1.78260(5) -0.01944(2) 0.99808(2)
Nd2A_2 Nd 1.26286(7) -0.50240(3) 0.52047(3)
Nd2_2 Nd 1.73714(7) -0.49760(3) 0.47953(3)
O6A O 1.1734(5) -0.0655(3) 1.0555(3)
O16A O 1.4290(5) 0.0120(2) 1.0590(2)
O25A O 0.9921(5) 0.0389(3) 1.0473(2)
O26A O 1.1680(6) 0.0519(3) 1.1091(3)
O9A O 0.9064(7) 0.5714(3) 0.4786(3)
O19A O 0.5419(8) 0.4553(3) 0.4392(4)
O20_2 O 0.6939(9) 0.5765(3) 0.5532(5)
O31 O 0.4528(14) 0.1473(7) 0.1734(7)
C63 C 0.3997(16) 0.1830(7) 0.1332(6)
O32 O 0.6834(19) 0.0704(7) 0.4861(7)
C64 C 0.843(3) 0.0524(9) 0.5165(9)
O33 O 0.047(2) 0.2031(9) 0.1108(9)
C65 C 0.157(3) 0.2401(11) 0.1387(9)
O34 O 1.339(2) 0.1743(7) 0.9166(12)
loop_
_geom_bond_atom_site_label_1
_geom_bond_atom_site_label_2
_geom_bond_site_symmetry_1
_geom_bond_site_symmetry_2
C1 C2 1_555 1_555
C2 H1 1_555 1_555
H2 C2 1_555 1_555
C3 C2 1_555 1_555
C4 C3 1_555 1_555
H3 C4 1_555 1_555
C5 C4 1_555 1_555
C6 C5 1_555 1_555
H5 C6 1_555 1_555
C7 C6 1_555 1_555
C8 C7 1_555 1_555
H6 C8 1_555 1_555
H7 C8 1_555 1_555
C9 C8 1_555 1_555
C10 C9 1_555 1_555
H8 C10 1_555 1_555
C11 C10 1_555 1_555
C12 C11 1_555 1_555
H9 C12 1_555 1_555
C13 C12 1_555 1_555
C14 C13 1_555 1_555
H10 C14 1_555 1_555
H11 C14 1_555 1_555
C15 C14 1_555 1_555
C16 C15 1_555 1_555
H12 C16 1_555 1_555
C17 C16 1_555 1_555
H13 C17 1_555 1_555
C18 C17 1_555 1_555
H14 C18 1_555 1_555
C19 C18 1_555 1_555
C20 C19 1_555 1_555
H15 C20 1_555 1_555
H16 C20 1_555 1_555
C21 C20 1_555 1_555
C22 C21 1_555 1_555
H17 C22 1_555 1_555
C23 C22 1_555 1_555
C24 C1 1_555 1_555
H18 C24 1_555 1_555
C25 C1 1_555 1_555
C26 C3 1_555 1_555
C27 C9 1_555 1_555
C28 C15 1_555 1_555
O1 C26 1_555 1_555
O2 C27 1_555 1_555
O3 C28 1_555 1_555
O4 C25 1_555 1_555
C29 O1 1_555 1_555
H19 C29 1_555 1_555
H21 C29 1_555 1_555
C30 O3 1_555 1_555
H22 C30 1_555 1_555
H23 C30 1_555 1_555
P1 C11 1_555 1_555
O5 P1 1_555 1_555
O6 P1 1_555 1_555
O7 P1 1_555 1_555
P2 C23 1_555 1_555
O8 P2 1_555 1_555
O9 P2 1_555 1_555
O10 P2 1_555 1_555
C31 C32 1_555 1_555
C32 H25 1_555 1_555
H26 C32 1_555 1_555
C33 C32 1_555 1_555
C34 C33 1_555 1_555
H27 C34 1_555 1_555
C35 C34 1_555 1_555
H28 C35 1_555 1_555
C36 C35 1_555 1_555
H29 C36 1_555 1_555
C37 C36 1_555 1_555
C38 C37 1_555 1_555
H30 C38 1_555 1_555
H31 C38 1_555 1_555
C39 C38 1_555 1_555
C40 C39 1_555 1_555
H32 C40 1_555 1_555
C41 C40 1_555 1_555
C42 C41 1_555 1_555
H33 C42 1_555 1_555
C43 C42 1_555 1_555
C44 C43 1_555 1_555
H34 C44 1_555 1_555
H35 C44 1_555 1_555
C45 C44 1_555 1_555
C46 C45 1_555 1_555
H36 C46 1_555 1_555
C47 C46 1_555 1_555
H37 C47 1_555 1_555
C48 C47 1_555 1_555
H38 C48 1_555 1_555
C49 C48 1_555 1_555
C50 C49 1_555 1_555
H39 C50 1_555 1_555
H40 C50 1_555 1_555
C51 C50 1_555 1_555
C52 C51 1_555 1_555
H41 C52 1_555 1_555
C53 C52 1_555 1_555
C54 C31 1_555 1_555
H42 C54 1_555 1_555
C55 C31 1_555 1_555
C56 C33 1_555 1_555
C57 C39 1_555 1_555
C58 C45 1_555 1_555
O11 C56 1_555 1_555
O12 C57 1_555 1_555
O13 C58 1_555 1_555
O14 C55 1_555 1_555
C59 O11 1_555 1_555
H43 C59 1_555 1_555
H45 C59 1_555 1_555
C60 O13 1_555 1_555
H46 C60 1_555 1_555
H47 C60 1_555 1_555
H48 C60 1_555 1_555
P3 C41 1_555 1_555
O15 P3 1_555 1_555
O16 P3 1_555 1_555
O17 P3 1_555 1_555
P4 C53 1_555 1_555
O18 P4 1_555 1_555
O19 P4 1_555 1_555
O20 P4 1_555 1_555
Nd1 O5 1_555 1_555
O21 Nd1 1_555 1_555
O22 Nd1 1_555 1_555
C61 O22 1_555 1_555
Nd2 O8 1_555 1_555
O23 Nd2 1_555 1_555
O24 Nd2 1_555 1_555
C62 O24 1_555 1_555
N1 O25 1_555 1_555
O25 Nd1 1_555 1_555
O26 N1 1_555 1_555
O27 N1 1_555 1_555
N2 O28 1_555 1_555
O28 Nd2 1_555 1_555
O29 Nd2 1_555 1_555
O30 N2 1_555 1_555
O31 C63 1_555 1_555
O32 C64 1_555 1_555
O33 C65 1_555 1_555
Nd1A O6 1_555 1_555
Nd2A O9 1_555 1_555
Nd1A_2 O16 1_555 1_555
Nd2A_2 O19 1_555 1_555
Nd2_2 O20 1_555 1_555
O6A Nd1 1_555 1_555
O16A Nd1 1_555 1_555
O25A Nd1 1_555 1_555
O26A Nd1 1_555 1_555
O9A Nd2 1_555 1_555
O19A Nd2 1_555 1_555
O20_2 Nd2 1_555 1_555
C7 C26 1_555 1_555
C13 C27 1_555 1_555
C19 C28 1_555 1_555
C21 C25 1_555 1_555
C23 C24 1_555 1_555
C37 C56 1_555 1_555
C43 C57 1_555 1_555
C49 C58 1_555 1_555
C51 C55 1_555 1_555
C53 C54 1_555 1_555
O15 Nd1 1_555 1_555
O25 Nd1A 1_555 1_555
O26 Nd1A 1_555 1_555
N2 O29 1_555 1_555
Nd1A O25A 1_555 1_555

#END
