
#######################################################################
#
#                 Cambridge Crystallographic Data Centre
#                                CCDC 
#
#######################################################################
#
# If this CIF has been generated from an entry in the Cambridge 
# Structural Database, then it will include bibliographic, chemical, 
# crystal, experimental, refinement or atomic coordinate data resulting 
# from the CCDC's data processing and validation procedures.
#
#######################################################################

data_WANJIF
_chemical_formula_moiety         '(C15 H15 Cu1 N3 O5)n'
_symmetry_cell_setting           orthorhombic
_symmetry_space_group_name_H-M   'P 21 21 21'
_symmetry_Int_Tables_number      19
_space_group_name_Hall           'P 2ac 2ab'
loop_
_symmetry_equiv_pos_site_id
_symmetry_equiv_pos_as_xyz
1 x,y,z
2 1/2-x,-y,1/2+z
3 -x,1/2+y,1/2-z
4 1/2+x,1/2-y,-z
_cell_length_a                   7.8199(7)
_cell_length_b                   10.4971(10)
_cell_length_c                   19.0810(18)
_cell_angle_alpha                90
_cell_angle_beta                 90
_cell_angle_gamma                90
_cell_volume                     1566.29
loop_
_atom_site_label
_atom_site_type_symbol
_atom_site_fract_x
_atom_site_fract_y
_atom_site_fract_z
_atom_site_U_iso_or_equiv
_atom_site_thermal_displace_type
Cu1 Cu 0.75054(7) 0.58946(4) 0.877597(19) 0.0103 Uani
C1 C 0.7485(6) 0.3930(3) 0.52331(17) 0.0138 Uani
O1 O 0.7784(4) 0.5105(2) 0.78598(13) 0.0134 Uani
O2 O 0.7860(3) 0.3297(2) 0.46823(13) 0.0121 Uani
N1 N 0.5541(5) 0.4738(3) 0.90263(17) 0.0151 Uani
C2 C 0.8719(5) 0.4098(4) 0.78414(19) 0.0130 Uani
C3 C 0.8351(5) 0.3463(4) 0.58900(18) 0.0108 Uani
O3 O 0.5742(4) 0.7455(3) 0.82817(17) 0.0225 Uani
C4 C 0.2566(8) 0.4497(4) 0.9273(2) 0.0263 Uani
H1 H 0.1473 0.4879 0.9329 0.0320 Uiso
C5 C 0.8082(5) 0.4005(4) 0.65381(19) 0.0128 Uani
H2 H 0.7294 0.4688 0.6587 0.0150 Uiso
C6 C 0.8958(5) 0.3556(4) 0.7118(2) 0.0116 Uani
O4 O 0.9400(4) 0.3594(3) 0.83501(14) 0.0220 Uani
O5 O 0.6522(4) 0.4851(3) 0.52620(16) 0.0256 Uani
C7 C 0.9520(5) 0.2467(4) 0.58376(18) 0.0111 Uani
H3 H 0.9690 0.2078 0.5393 0.0130 Uiso
C8 C 0.3963(5) 0.5231(4) 0.9113(2) 0.0200 Uani
H4 H 0.3813 0.6124 0.9061 0.0240 Uiso
C9 C 0.5731(6) 0.3485(4) 0.9119(2) 0.0230 Uani
H5 H 0.6835 0.3120 0.9065 0.0280 Uiso
N2 N 1.0422(4) 0.2029(3) 0.63904(16) 0.0102 Uani
C10 C 1.0122(5) 0.2558(4) 0.70172(19) 0.0119 Uani
H6 H 1.0728 0.2241 0.7412 0.0140 Uiso
C11 C 0.2761(6) 0.3214(4) 0.9350(2) 0.0253 Uani
H7 H 0.1803 0.2684 0.9442 0.0310 Uiso
N3 N 0.6527(5) 0.9543(3) 0.82075(19) 0.0224 Uani
C12 C 0.4377(6) 0.2703(4) 0.9291(3) 0.0283 Uani
H8 H 0.4558 0.1819 0.9368 0.0340 Uiso
C13 C 0.5829(7) 0.8464(5) 0.7942(3) 0.0247 Uani
C14 C 0.7113(7) 0.9607(6) 0.8930(3) 0.0277 Uani
C15 C 0.6538(11) 1.0694(6) 0.7779(4) 0.0490 Uani
Cu1A Cu 0.74946(7) 0.41054(4) 0.377597(19) 0.0103 Uani
Cu1B Cu 1.24946(7) 0.08946(4) 0.622403(19) 0.0103 Uani
O2A O 0.7140(3) 0.6703(2) 0.96823(13) 0.0121 Uani
N2B N 0.9578(4) 0.7029(3) 0.86096(16) 0.0102 Uani
loop_
_atom_site_aniso_label
_atom_site_aniso_U_11
_atom_site_aniso_U_22
_atom_site_aniso_U_33
_atom_site_aniso_U_23
_atom_site_aniso_U_13
_atom_site_aniso_U_12
Cu1 0.0127(2) 0.0117(2) 0.00663(19) -0.00122(15) 0.0014(2) -0.0014(2)
C1 0.016 0.0151 0.0102 0.0008 -0.003 -0.003
O1 0.0157 0.015 0.0096 -0.0034 0.0009 -0.0002
O2 0.0146 0.0145 0.0072 0.0015 -0.0031 0.0012
N1 0.0205(19) 0.0154(17) 0.0093(16) 0.0014(13) 0.0020(14) -0.0033(16)
C2 0.0109 0.018 0.0101 -0.0032 0.002 -0.0018
C3 0.0143 0.011 0.0071 -0.0027 -0.0024 0.0013
O3 0.0227(16) 0.0170(17) 0.0279(16) 0.0047(14) -0.0023(14) 0.0045(13)
C4 0.015(2) 0.026(2) 0.038(2) 0.0039(18) 0.002(3) -0.002(3)
C5 0.0124 0.0099 0.016 -0.0006 0.0007 0.0002
C6 0.0117 0.0139 0.0091 -0.003 -0.0007 -0.0028
O4 0.0208 0.035 0.0101 -0.002 -0.0025 0.0052
O5 0.0341 0.0255 0.0172 -0.0023 -0.0068 0.0164
C7 0.0131 0.0134 0.0067 -0.0025 0.0003 -0.0018
C8 0.015(2) 0.017(2) 0.028(2) 0.0036(18) 0.0015(18) 0.0027(18)
C9 0.021(2) 0.021(2) 0.027(2) 0.0019(19) 0.0072(19) 0.0035(19)
N2 0.0144 0.0108 0.0054 -0.0003 0.0019 -0.0016
C10 0.0126 0.015 0.0082 0.002 0.0002 -0.0047
C11 0.019(3) 0.024(2) 0.033(2) 0.0055(18) 0.005(2) -0.006(2)
N3 0.032(2) 0.0192(19) 0.0160(17) 0.0012(15) -0.0019(16) 0.0040(17)
C12 0.025(2) 0.015(2) 0.045(3) 0.006(2) 0.005(2) 0.000(2)
C13 0.022(3) 0.025(3) 0.027(3) 0.001(2) -0.002(2) 0.001(2)
C14 0.029(4) 0.036(3) 0.018(2) -0.001(2) -0.005(2) 0.009(2)
C15 0.079(5) 0.029(4) 0.039(4) 0.012(3) -0.015(4) -0.010(4)
Cu1A 0.0127 0.0117 0.00663 0.00122 -0.0014 -0.0014
Cu1B 0.0127 0.0117 0.00663 0.00122 0.0014 0.0014
O2A 0.0146(16) 0.0145(13) 0.0072(11) -0.0015(10) 0.0031(10) 0.0012(11)
N2B 0.0144 0.0108 0.0054 0.0003 0.0019 0.0016
loop_
_geom_bond_atom_site_label_1
_geom_bond_atom_site_label_2
_geom_bond_site_symmetry_1
_geom_bond_site_symmetry_2
Cu1 O1 1_555 1_555
C1 O2 1_555 1_555
O1 C2 1_555 1_555
O2 Cu1A 1_555 1_555
N1 Cu1 1_555 1_555
C2 C6 1_555 1_555
C3 C1 1_555 1_555
O3 Cu1 1_555 1_555
C4 H1 1_555 1_555
C5 C3 1_555 1_555
H2 C5 1_555 1_555
C6 C5 1_555 1_555
O4 C2 1_555 1_555
O5 C1 1_555 1_555
C7 C3 1_555 1_555
H3 C7 1_555 1_555
C8 N1 1_555 1_555
H4 C8 1_555 1_555
C9 N1 1_555 1_555
H5 C9 1_555 1_555
N2 C7 1_555 1_555
C10 C6 1_555 1_555
H6 C10 1_555 1_555
C11 C4 1_555 1_555
H7 C11 1_555 1_555
N3 C13 1_555 1_555
C12 C9 1_555 1_555
H8 C12 1_555 1_555
C13 O3 1_555 1_555
C14 N3 1_555 1_555
C15 N3 1_555 1_555
Cu1B N2 1_555 1_555
O2A Cu1 1_555 1_555
N2B Cu1 1_555 1_555
C4 C8 1_555 1_555
N2 C10 1_555 1_555
C11 C12 1_555 1_555

#END
