
#######################################################################
#
#                 Cambridge Crystallographic Data Centre
#                                CCDC 
#
#######################################################################
#
# If this CIF has been generated from an entry in the Cambridge 
# Structural Database, then it will include bibliographic, chemical, 
# crystal, experimental, refinement or atomic coordinate data resulting 
# from the CCDC's data processing and validation procedures.
#
#######################################################################

data_QAGDIO
_chemical_formula_moiety         '(C130 H80 Cu8 N24 O40)n'
_symmetry_cell_setting           orthorhombic
_symmetry_space_group_name_H-M   'C 2 2 2'
_symmetry_Int_Tables_number      21
_space_group_name_Hall           'C 2 2'
loop_
_symmetry_equiv_pos_site_id
_symmetry_equiv_pos_as_xyz
1 x,y,z
2 -x,-y,z
3 x,-y,-z
4 -x,y,-z
5 1/2+x,1/2+y,z
6 1/2-x,1/2-y,z
7 1/2+x,1/2-y,-z
8 1/2-x,1/2+y,-z
_cell_length_a                   46.0575(6)
_cell_length_b                   20.9442(3)
_cell_length_c                   14.1001(3)
_cell_angle_alpha                90
_cell_angle_beta                 90
_cell_angle_gamma                90
_cell_volume                     13601.5
loop_
_atom_site_label
_atom_site_type_symbol
_atom_site_fract_x
_atom_site_fract_y
_atom_site_fract_z
Cu1 Cu 0.195124(7) 0.0000 0.0000
Cu2 Cu 0.137553(7) 0.0000 0.0000
O1 O 0.19061(5) 0.06703(11) 0.09637(16)
O2 O 0.19034(5) 0.06561(11) -0.10114(17)
O3 O 0.24140(5) 0.0000 0.0000
O4 O 0.14191(5) 0.06296(12) 0.09982(17)
O5 O 0.14211(5) 0.06975(11) -0.09233(19)
O6 O 0.09111(4) 0.0000 0.0000
C1 C 0.16677(7) 0.08601(15) 0.1236(2)
C2 C 0.16570(7) 0.08736(15) -0.1233(2)
H1 H 0.2473 -0.0266 -0.0380
H2 H 0.0852 0.0252 0.0401
C3 C 0.16555(7) 0.14021(16) 0.1918(2)
C4 C 0.16574(7) 0.14418(16) -0.1891(2)
C5 C 0.18851(7) 0.15495(16) 0.2480(2)
C6 C 0.13964(7) 0.17595(18) 0.1972(3)
C7 C 0.18909(7) 0.15547(16) -0.2526(2)
C8 C 0.14249(7) 0.18455(18) -0.1892(3)
C9 C 0.18740(7) 0.20898(15) 0.3089(2)
H3 H 0.2051 0.1295 0.2467
C10 C 0.13884(7) 0.22832(19) 0.2559(3)
H4 H 0.1234 0.1643 0.1618
H5 H 0.2048 0.1276 -0.2540
C11 C 0.18860(7) 0.20665(17) -0.3112(3)
H6 H 0.1266 0.1765 -0.1501
C12 C 0.14264(8) 0.23842(19) -0.2486(3)
C13 C 0.21192(6) 0.22402(16) 0.3730(2)
C14 C 0.16266(7) 0.24491(18) 0.3129(3)
N1 N 0.11240(6) 0.26577(18) 0.2578(3)
C15 C 0.21294(6) 0.22190(18) -0.3800(2)
C16 C 0.16536(8) 0.25109(19) -0.3072(3)
N2 N 0.11951(7) 0.28306(18) -0.2466(3)
O7 O 0.22871(4) 0.17955(12) 0.39562(17)
O8 O 0.21337(5) 0.28020(12) 0.40255(18)
H7 H 0.1616 0.2801 0.3530
N3 N 0.09311(7) 0.2631(2) 0.1887(3)
C17 C 0.10289(7) 0.30195(19) 0.3296(3)
O9 O 0.22839(4) 0.17609(11) -0.40694(16)
O10 O 0.21538(5) 0.27936(12) -0.40447(18)
H8 H 0.1657 0.2880 -0.3438
C18 C 0.10232(7) 0.29937(17) -0.1729(3)
N4 N 0.11492(10) 0.3239(2) -0.3195(3)
Cu3 Cu 0.258461(5) 0.189463(11) 0.49657(4)
N5 N 0.07085(7) 0.29779(19) 0.2143(2)
H9 H 0.1125 0.3116 0.3858
C19 C 0.07597(6) 0.32160(16) 0.3022(2)
H10 H 0.1018 0.2804 -0.1133
C20 C 0.08568(6) 0.35014(16) -0.2046(2)
N6 N 0.09383(8) 0.36235(17) -0.2960(2)
O11 O 0.27401(5) 0.09345(8) 0.4941(3)
C21 C 0.05614(5) 0.36595(14) 0.3509(2)
C22 C 0.06297(6) 0.38649(14) -0.1547(2)
H11 H 0.2931 0.0860 0.4810
H12 H 0.2621 0.0610 0.5100
C23 C 0.03003(6) 0.38689(12) 0.30895(19)
C24 C 0.06190(6) 0.3854(2) 0.4410(2)
C25 C 0.05343(7) 0.36787(16) -0.0680(2)
C26 C 0.05266(5) 0.44319(15) -0.1922(2)
H13 H 0.0246 0.3713 0.2498
C27 C 0.01250(5) 0.43023(11) 0.35480(17)
C28 C 0.04429(5) 0.42929(16) 0.4883(3)
H14 H 0.0781 0.3689 0.4721
H15 H 0.0608 0.3308 -0.0408
C29 C 0.03278(7) 0.40356(13) -0.0191(3)
H16 H 0.0597 0.4578 -0.2500
C30 C 0.03222(4) 0.47779(13) -0.14489(16)
H17 H -0.0045 0.4438 0.3252
C31 C 0.01919(4) 0.45409(12) 0.44269(15)
H18 H 0.0490 0.4423 0.5495
H19 H 0.0268 0.3905 0.0409
C32 C 0.02096(5) 0.45829(11) -0.05874(15)
H20 H 0.0256 0.5158 -0.1714
C33 C 0.0000 0.5000 0.5000
C34 C 0.0000 0.5000 0.0000
O1B O 0.19061(5) -0.06703(11) -0.09637(16)
O2B O 0.19034(5) -0.06561(11) 0.10114(17)
O4B O 0.14191(5) -0.06296(12) -0.09982(17)
O5B O 0.14211(5) -0.06975(11) 0.09233(19)
H1B H 0.2473 0.0266 0.0380
H2B H 0.0852 -0.0252 -0.0401
Cu3E Cu 0.241539(5) 0.310537(11) 0.49657(4)
Cu3_2 Cu 0.258461(5) 0.189463(11) -0.50343(4)
Cu3E_2 Cu 0.241539(5) 0.310537(11) -0.50343(4)
O8E O 0.28663(5) 0.21980(12) 0.40255(18)
O9_2 O 0.22839(4) 0.17609(11) 0.59306(16)
O10E O 0.28462(5) 0.22064(12) 0.59553(18)
O11E O 0.22599(5) 0.40655(8) 0.4941(3)
O7E O 0.27129(4) 0.32045(12) 0.39562(17)
O9E O 0.27161(4) 0.32391(11) 0.59306(16)
O10_2 O 0.21538(5) 0.27936(12) 0.59553(18)
O11_2 O 0.27401(5) 0.09345(8) -0.5059(3)
O7_2 O 0.22871(4) 0.17955(12) -0.60438(17)
O8E_2 O 0.28663(5) 0.21980(12) -0.59745(18)
O10E_2 O 0.28462(5) 0.22064(12) -0.40447(18)
O11E_2 O 0.22599(5) 0.40655(8) -0.5059(3)
O7E_2 O 0.27129(4) 0.32045(12) -0.60438(17)
O8_2 O 0.21337(5) 0.28020(12) -0.59745(18)
O9E_2 O 0.27161(4) 0.32391(11) -0.40694(16)
H11E H 0.2069 0.4140 0.4810
H12E H 0.2379 0.4390 0.5100
H11_2 H 0.2931 0.0860 -0.5190
H12_2 H 0.2621 0.0610 -0.4900
H11E_2 H 0.2069 0.4140 -0.5190
H12E_2 H 0.2379 0.4390 -0.4900
C31A C -0.01919(4) 0.54591(12) 0.44269(15)
C31B C 0.01919(4) 0.54591(12) 0.55731(15)
C31C C -0.01919(4) 0.45409(12) 0.55731(15)
C32A C -0.02096(5) 0.54171(11) -0.05874(15)
C32B C 0.02096(5) 0.54171(11) 0.05874(15)
C32C C -0.02096(5) 0.45829(11) 0.05874(15)
C27A C -0.01250(5) 0.56977(11) 0.35480(17)
C28A C -0.04429(5) 0.57071(16) 0.4883(3)
C27B C 0.01250(5) 0.56977(11) 0.64520(17)
C28B C 0.04429(5) 0.57071(16) 0.5117(3)
C27C C -0.01250(5) 0.43023(11) 0.64520(17)
C28C C -0.04429(5) 0.42929(16) 0.5117(3)
C29A C -0.03278(7) 0.59644(13) -0.0191(3)
C30A C -0.03222(4) 0.52221(13) -0.14489(16)
C29B C 0.03278(7) 0.59644(13) 0.0191(3)
C30B C 0.03222(4) 0.52221(13) 0.14489(16)
C29C C -0.03278(7) 0.40356(13) 0.0191(3)
C30C C -0.03222(4) 0.47779(13) 0.14489(16)
C23A C -0.03003(6) 0.61311(12) 0.30895(19)
H17A H 0.0045 0.5562 0.3252
H18A H -0.0490 0.5577 0.5495
C24A C -0.06190(6) 0.6146(2) 0.4410(2)
C23B C 0.03003(6) 0.61311(12) 0.69105(19)
H17B H -0.0045 0.5562 0.6748
H18B H 0.0490 0.5577 0.4505
C24B C 0.06190(6) 0.6146(2) 0.5590(2)
C23C C -0.03003(6) 0.38689(12) 0.69105(19)
H17C H 0.0045 0.4438 0.6748
H18C H -0.0490 0.4423 0.4505
C24C C -0.06190(6) 0.3854(2) 0.5590(2)
C25A C -0.05343(7) 0.63213(16) -0.0680(2)
H19A H -0.0268 0.6095 0.0409
C26A C -0.05266(5) 0.55681(15) -0.1922(2)
H20A H -0.0256 0.4842 -0.1714
C25B C 0.05343(7) 0.63213(16) 0.0680(2)
H19B H 0.0268 0.6095 -0.0409
C26B C 0.05266(5) 0.55681(15) 0.1922(2)
H20B H 0.0256 0.4842 0.1714
C25C C -0.05343(7) 0.36787(16) 0.0680(2)
H19C H -0.0268 0.3905 -0.0409
C26C C -0.05266(5) 0.44319(15) 0.1922(2)
H20C H -0.0256 0.5158 0.1714
C21A C -0.05614(5) 0.63405(14) 0.3509(2)
H13A H -0.0246 0.6287 0.2498
H14A H -0.0781 0.6311 0.4721
C21B C 0.05614(5) 0.63405(14) 0.6491(2)
H13B H 0.0246 0.6287 0.7502
H14B H 0.0781 0.6311 0.5279
C21C C -0.05614(5) 0.36595(14) 0.6491(2)
H13C H -0.0246 0.3713 0.7502
H14C H -0.0781 0.3689 0.5279
C22A C -0.06297(6) 0.61351(14) -0.1547(2)
H15A H -0.0608 0.6692 -0.0408
H16A H -0.0597 0.5422 -0.2500
C22B C 0.06297(6) 0.61351(14) 0.1547(2)
H15B H 0.0608 0.6692 0.0408
H16B H 0.0597 0.5422 0.2500
C22C C -0.06297(6) 0.38649(14) 0.1547(2)
H15C H -0.0608 0.3308 0.0408
H16C H -0.0597 0.4578 0.2500
C19A C -0.07597(6) 0.67840(16) 0.3022(2)
C19B C 0.07597(6) 0.67840(16) 0.6978(2)
C19C C -0.07597(6) 0.32160(16) 0.6978(2)
C20A C -0.08568(6) 0.64986(16) -0.2046(2)
C20B C 0.08568(6) 0.64986(16) 0.2046(2)
C20C C -0.08568(6) 0.35014(16) 0.2046(2)
N5A N -0.07085(7) 0.70221(19) 0.2143(2)
C17A C -0.10289(7) 0.69805(19) 0.3296(3)
N5B N 0.07085(7) 0.70221(19) 0.7857(2)
C17B C 0.10289(7) 0.69805(19) 0.6704(3)
N5C N -0.07085(7) 0.29779(19) 0.7857(2)
C17C C -0.10289(7) 0.30195(19) 0.6704(3)
C18A C -0.10232(7) 0.70063(17) -0.1729(3)
N6A N -0.09383(8) 0.63765(17) -0.2960(2)
C18B C 0.10232(7) 0.70063(17) 0.1729(3)
N6B N 0.09383(8) 0.63765(17) 0.2960(2)
C18C C -0.10232(7) 0.29937(17) 0.1729(3)
N6C N -0.09383(8) 0.36235(17) 0.2960(2)
N3A N -0.09311(7) 0.7369(2) 0.1887(3)
N1A N -0.11240(6) 0.73423(18) 0.2578(3)
H9A H -0.1125 0.6884 0.3858
N3B N 0.09311(7) 0.7369(2) 0.8113(3)
N1B N 0.11240(6) 0.73423(18) 0.7422(3)
H9B H 0.1125 0.6884 0.6142
N3C N -0.09311(7) 0.2631(2) 0.8113(3)
N1C N -0.11240(6) 0.26577(18) 0.7422(3)
H9C H -0.1125 0.3116 0.6142
N2A N -0.11951(7) 0.71694(18) -0.2466(3)
H10A H -0.1018 0.7196 -0.1133
N4A N -0.11492(10) 0.6761(2) -0.3195(3)
N2B N 0.11951(7) 0.71694(18) 0.2466(3)
H10B H 0.1018 0.7196 0.1133
N4B N 0.11492(10) 0.6761(2) 0.3195(3)
N2C N -0.11951(7) 0.28306(18) 0.2466(3)
H10C H -0.1018 0.2804 0.1133
N4C N -0.11492(10) 0.3239(2) 0.3195(3)
C10A C -0.13884(7) 0.77168(19) 0.2559(3)
C10B C 0.13884(7) 0.77168(19) 0.7441(3)
C10C C -0.13884(7) 0.22832(19) 0.7441(3)
C12A C -0.14264(8) 0.76158(19) -0.2486(3)
C12B C 0.14264(8) 0.76158(19) 0.2486(3)
C12C C -0.14264(8) 0.23842(19) 0.2486(3)
C14A C -0.16266(7) 0.75509(18) 0.3129(3)
C6A C -0.13964(7) 0.82405(18) 0.1972(3)
C14B C 0.16266(7) 0.75509(18) 0.6871(3)
C6B C 0.13964(7) 0.82405(18) 0.8028(3)
C14C C -0.16266(7) 0.24491(18) 0.6871(3)
C6C C -0.13964(7) 0.17595(18) 0.8028(3)
C16A C -0.16536(8) 0.74891(19) -0.3072(3)
C8A C -0.14249(7) 0.81545(18) -0.1892(3)
C16B C 0.16536(8) 0.74891(19) 0.3072(3)
C8B C 0.14249(7) 0.81545(18) 0.1892(3)
C16C C -0.16536(8) 0.25109(19) 0.3072(3)
C8C C -0.14249(7) 0.18455(18) 0.1892(3)
C9A C -0.18740(7) 0.79102(15) 0.3089(2)
H7A H -0.1616 0.7199 0.3530
C3A C -0.16555(7) 0.85979(16) 0.1918(2)
H4A H -0.1234 0.8357 0.1618
C9B C 0.18740(7) 0.79102(15) 0.6911(2)
H7B H 0.1616 0.7199 0.6470
C3B C 0.16555(7) 0.85979(16) 0.8082(2)
H4B H 0.1234 0.8357 0.8382
C9C C -0.18740(7) 0.20898(15) 0.6911(2)
H7C H -0.1616 0.2801 0.6470
C3C C -0.16555(7) 0.14021(16) 0.8082(2)
H4C H -0.1234 0.1643 0.8382
C11A C -0.18860(7) 0.79335(17) -0.3112(3)
H8A H -0.1657 0.7120 -0.3438
C4A C -0.16574(7) 0.85582(16) -0.1891(2)
H6A H -0.1266 0.8235 -0.1501
C11B C 0.18860(7) 0.79335(17) 0.3112(3)
H8B H 0.1657 0.7120 0.3438
C4B C 0.16574(7) 0.85582(16) 0.1891(2)
H6B H 0.1266 0.8235 0.1501
C11C C -0.18860(7) 0.20665(17) 0.3112(3)
H8C H -0.1657 0.2880 0.3438
C4C C -0.16574(7) 0.14418(16) 0.1891(2)
H6C H -0.1266 0.1765 0.1501
C13A C -0.21192(6) 0.77598(16) 0.3730(2)
C5A C -0.18851(7) 0.84505(16) 0.2480(2)
C1A C -0.16677(7) 0.91399(15) 0.1236(2)
C13B C 0.21192(6) 0.77598(16) 0.6270(2)
C5B C 0.18851(7) 0.84505(16) 0.7520(2)
C1B C 0.16677(7) 0.91399(15) 0.8764(2)
C13C C -0.21192(6) 0.22402(16) 0.6270(2)
C5C C -0.18851(7) 0.15495(16) 0.7520(2)
C1C C -0.16677(7) 0.08601(15) 0.8764(2)
C7A C -0.18909(7) 0.84453(16) -0.2526(2)
C15A C -0.21294(6) 0.77810(18) -0.3800(2)
C2A C -0.16570(7) 0.91264(15) -0.1233(2)
C7B C 0.18909(7) 0.84453(16) 0.2526(2)
C15B C 0.21294(6) 0.77810(18) 0.3800(2)
C2B C 0.16570(7) 0.91264(15) 0.1233(2)
C7C C -0.18909(7) 0.15547(16) 0.2526(2)
C15C C -0.21294(6) 0.22190(18) 0.3800(2)
C2C C -0.16570(7) 0.08736(15) 0.1233(2)
O7A O -0.22871(4) 0.82045(12) 0.39562(17)
O8A O -0.21337(5) 0.71980(12) 0.40255(18)
H3A H -0.2051 0.8705 0.2467
O1A O -0.19061(5) 0.93297(11) 0.09637(16)
O4A O -0.14191(5) 0.93704(12) 0.09982(17)
O7B O 0.22871(4) 0.82045(12) 0.60438(17)
O8B O 0.21337(5) 0.71980(12) 0.59745(18)
H3B H 0.2051 0.8705 0.7533
O1B_2 O 0.19061(5) 0.93297(11) 0.90363(16)
O4B_2 O 0.14191(5) 0.93704(12) 0.90018(17)
O7C O -0.22871(4) 0.17955(12) 0.60438(17)
O8C O -0.21337(5) 0.28020(12) 0.59745(18)
H3C H -0.2051 0.1295 0.7533
O1C O -0.19061(5) 0.06703(11) 0.90363(16)
O4C O -0.14191(5) 0.06296(12) 0.90018(17)
H5A H -0.2048 0.8724 -0.2540
O9A O -0.22839(4) 0.82391(11) -0.40694(16)
O10A O -0.21538(5) 0.72064(12) -0.40447(18)
O2A O -0.19034(5) 0.93439(11) -0.10114(17)
O5A O -0.14211(5) 0.93025(11) -0.09233(19)
H5B H 0.2048 0.8724 0.2540
O9B O 0.22839(4) 0.82391(11) 0.40694(16)
O10B O 0.21538(5) 0.72064(12) 0.40447(18)
O2B_2 O 0.19034(5) 0.93439(11) 0.10114(17)
O5B_2 O 0.14211(5) 0.93025(11) 0.09233(19)
H5C H -0.2048 0.1276 0.2540
O9C O -0.22839(4) 0.17609(11) 0.40694(16)
O10C O -0.21538(5) 0.27936(12) 0.40447(18)
O2C O -0.19034(5) 0.06561(11) 0.10114(17)
O5C O -0.14211(5) 0.06975(11) 0.09233(19)
Cu3A Cu -0.258461(5) 0.810537(11) 0.49657(4)
Cu3D Cu -0.241539(5) 0.689463(11) 0.49657(4)
Cu1A Cu -0.195124(7) 1.0000 0.0000
Cu2A Cu -0.137553(7) 1.0000 0.0000
Cu3B Cu 0.258461(5) 0.810537(11) 0.50343(4)
Cu3G Cu 0.241539(5) 0.689463(11) 0.50343(4)
Cu1_2 Cu 0.195124(7) 1.0000 1.0000
Cu2_2 Cu 0.137553(7) 1.0000 1.0000
Cu3C Cu -0.258461(5) 0.189463(11) 0.50343(4)
Cu3F Cu -0.241539(5) 0.310537(11) 0.50343(4)
Cu1A_2 Cu -0.195124(7) 0.0000 1.0000
Cu2A_2 Cu -0.137553(7) 0.0000 1.0000
Cu3A_2 Cu -0.258461(5) 0.810537(11) -0.50343(4)
Cu3D_2 Cu -0.241539(5) 0.689463(11) -0.50343(4)
Cu1_3 Cu 0.195124(7) 1.0000 0.0000
Cu2_3 Cu 0.137553(7) 1.0000 0.0000
Cu1A_3 Cu -0.195124(7) 0.0000 0.0000
Cu2A_3 Cu -0.137553(7) 0.0000 0.0000
O3A O -0.24140(5) 0.0000 0.0000
O1A_2 O -0.19061(5) -0.06703(11) 0.09637(16)
O1C_2 O -0.19061(5) 0.06703(11) -0.09637(16)
O2A_2 O -0.19034(5) -0.06561(11) -0.10114(17)
O6A O -0.09111(4) 0.0000 0.0000
O4A_2 O -0.14191(5) -0.06296(12) 0.09982(17)
O4C_2 O -0.14191(5) 0.06296(12) -0.09982(17)
O5A_2 O -0.14211(5) -0.06975(11) -0.09233(19)
H1A H -0.2473 0.0266 -0.0380
H1C H -0.2473 -0.0266 0.0380
H2A H -0.0852 -0.0252 0.0401
H2C H -0.0852 0.0252 -0.0401
loop_
_geom_bond_atom_site_label_1
_geom_bond_atom_site_label_2
_geom_bond_site_symmetry_1
_geom_bond_site_symmetry_2
Cu1 Cu2 1_555 1_555
Cu2 O4 1_555 1_555
O1 Cu1 1_555 1_555
O2 Cu1 1_555 1_555
O3 Cu1 1_555 1_555
O4 C1 1_555 1_555
O5 Cu2 1_555 1_555
O6 Cu2 1_555 1_555
C1 O1 1_555 1_555
C2 O2 1_555 1_555
H1 O3 1_555 1_555
H2 O6 1_555 1_555
C3 C1 1_555 1_555
C4 C2 1_555 1_555
C5 C3 1_555 1_555
C6 C3 1_555 1_555
C7 C4 1_555 1_555
C8 C4 1_555 1_555
C9 C5 1_555 1_555
H3 C5 1_555 1_555
C10 C6 1_555 1_555
H4 C6 1_555 1_555
H5 C7 1_555 1_555
C11 C7 1_555 1_555
H6 C8 1_555 1_555
C12 C8 1_555 1_555
C13 C9 1_555 1_555
C14 C9 1_555 1_555
N1 C10 1_555 1_555
C15 C11 1_555 1_555
C16 C11 1_555 1_555
N2 C12 1_555 1_555
O7 C13 1_555 1_555
O8 C13 1_555 1_555
H7 C14 1_555 1_555
N3 N1 1_555 1_555
C17 N1 1_555 1_555
O9 C15 1_555 1_555
O10 C15 1_555 1_555
H8 C16 1_555 1_555
C18 N2 1_555 1_555
N4 N2 1_555 1_555
Cu3 O7 1_555 1_555
N5 N3 1_555 1_555
H9 C17 1_555 1_555
C19 C17 1_555 1_555
H10 C18 1_555 1_555
C20 C18 1_555 1_555
N6 N4 1_555 1_555
O11 Cu3 1_555 1_555
C21 C19 1_555 1_555
C22 C20 1_555 1_555
H11 O11 1_555 1_555
H12 O11 1_555 1_555
C23 C21 1_555 1_555
C24 C21 1_555 1_555
C25 C22 1_555 1_555
C26 C22 1_555 1_555
H13 C23 1_555 1_555
C27 C23 1_555 1_555
C28 C24 1_555 1_555
H14 C24 1_555 1_555
H15 C25 1_555 1_555
C29 C25 1_555 1_555
H16 C26 1_555 1_555
C30 C26 1_555 1_555
H17 C27 1_555 1_555
C31 C27 1_555 1_555
H18 C28 1_555 1_555
H19 C29 1_555 1_555
C32 C29 1_555 1_555
H20 C30 1_555 1_555
C33 C31 1_555 1_555
C34 C32 1_555 1_555
O1B Cu1 1_555 1_555
O2B Cu1 1_555 1_555
O4B Cu2 1_555 1_555
O5B Cu2 1_555 1_555
H1B O3 1_555 1_555
H2B O6 1_555 1_555
Cu3E O8 1_555 1_555
Cu3_2 O9 1_555 1_555
Cu3E_2 O10 1_555 1_555
O8E Cu3 1_555 1_555
O9_2 Cu3 1_555 1_555
O10E Cu3 1_555 1_555
O11E Cu3E 1_555 1_555
O7E Cu3E 1_555 1_555
O9E Cu3E 1_555 1_555
O10_2 Cu3E 1_555 1_555
O11_2 Cu3_2 1_555 1_555
O7_2 Cu3_2 1_555 1_555
O8E_2 Cu3_2 1_555 1_555
O10E_2 Cu3_2 1_555 1_555
O11E_2 Cu3E_2 1_555 1_555
O7E_2 Cu3E_2 1_555 1_555
O8_2 Cu3E_2 1_555 1_555
O9E_2 Cu3E_2 1_555 1_555
H11E O11E 1_555 1_555
H12E O11E 1_555 1_555
H11_2 O11_2 1_555 1_555
H12_2 O11_2 1_555 1_555
H11E_2 O11E_2 1_555 1_555
H12E_2 O11E_2 1_555 1_555
C31A C33 1_555 1_555
C31B C33 1_555 1_555
C31C C33 1_555 1_555
C32A C34 1_555 1_555
C32B C34 1_555 1_555
C32C C34 1_555 1_555
C27A C31A 1_555 1_555
C28A C31A 1_555 1_555
C27B C31B 1_555 1_555
C28B C31B 1_555 1_555
C27C C31C 1_555 1_555
C28C C31C 1_555 1_555
C29A C32A 1_555 1_555
C30A C32A 1_555 1_555
C29B C32B 1_555 1_555
C30B C32B 1_555 1_555
C29C C32C 1_555 1_555
C30C C32C 1_555 1_555
C23A C27A 1_555 1_555
H17A C27A 1_555 1_555
H18A C28A 1_555 1_555
C24A C28A 1_555 1_555
C23B C27B 1_555 1_555
H17B C27B 1_555 1_555
H18B C28B 1_555 1_555
C24B C28B 1_555 1_555
C23C C27C 1_555 1_555
H17C C27C 1_555 1_555
H18C C28C 1_555 1_555
C24C C28C 1_555 1_555
C25A C29A 1_555 1_555
H19A C29A 1_555 1_555
C26A C30A 1_555 1_555
H20A C30A 1_555 1_555
C25B C29B 1_555 1_555
H19B C29B 1_555 1_555
C26B C30B 1_555 1_555
H20B C30B 1_555 1_555
C25C C29C 1_555 1_555
H19C C29C 1_555 1_555
C26C C30C 1_555 1_555
H20C C30C 1_555 1_555
C21A C23A 1_555 1_555
H13A C23A 1_555 1_555
H14A C24A 1_555 1_555
C21B C23B 1_555 1_555
H13B C23B 1_555 1_555
H14B C24B 1_555 1_555
C21C C23C 1_555 1_555
H13C C23C 1_555 1_555
H14C C24C 1_555 1_555
C22A C25A 1_555 1_555
H15A C25A 1_555 1_555
H16A C26A 1_555 1_555
C22B C25B 1_555 1_555
H15B C25B 1_555 1_555
H16B C26B 1_555 1_555
C22C C25C 1_555 1_555
H15C C25C 1_555 1_555
H16C C26C 1_555 1_555
C19A C21A 1_555 1_555
C19B C21B 1_555 1_555
C19C C21C 1_555 1_555
C20A C22A 1_555 1_555
C20B C22B 1_555 1_555
C20C C22C 1_555 1_555
N5A C19A 1_555 1_555
C17A C19A 1_555 1_555
N5B C19B 1_555 1_555
C17B C19B 1_555 1_555
N5C C19C 1_555 1_555
C17C C19C 1_555 1_555
C18A C20A 1_555 1_555
N6A C20A 1_555 1_555
C18B C20B 1_555 1_555
N6B C20B 1_555 1_555
C18C C20C 1_555 1_555
N6C C20C 1_555 1_555
N3A N5A 1_555 1_555
N1A C17A 1_555 1_555
H9A C17A 1_555 1_555
N3B N5B 1_555 1_555
N1B C17B 1_555 1_555
H9B C17B 1_555 1_555
N3C N5C 1_555 1_555
N1C C17C 1_555 1_555
H9C C17C 1_555 1_555
N2A C18A 1_555 1_555
H10A C18A 1_555 1_555
N4A N6A 1_555 1_555
N2B C18B 1_555 1_555
H10B C18B 1_555 1_555
N4B N6B 1_555 1_555
N2C C18C 1_555 1_555
H10C C18C 1_555 1_555
N4C N6C 1_555 1_555
C10A N1A 1_555 1_555
C10B N1B 1_555 1_555
C10C N1C 1_555 1_555
C12A N2A 1_555 1_555
C12B N2B 1_555 1_555
C12C N2C 1_555 1_555
C14A C10A 1_555 1_555
C6A C10A 1_555 1_555
C14B C10B 1_555 1_555
C6B C10B 1_555 1_555
C14C C10C 1_555 1_555
C6C C10C 1_555 1_555
C16A C12A 1_555 1_555
C8A C12A 1_555 1_555
C16B C12B 1_555 1_555
C8B C12B 1_555 1_555
C16C C12C 1_555 1_555
C8C C12C 1_555 1_555
C9A C14A 1_555 1_555
H7A C14A 1_555 1_555
C3A C6A 1_555 1_555
H4A C6A 1_555 1_555
C9B C14B 1_555 1_555
H7B C14B 1_555 1_555
C3B C6B 1_555 1_555
H4B C6B 1_555 1_555
C9C C14C 1_555 1_555
H7C C14C 1_555 1_555
C3C C6C 1_555 1_555
H4C C6C 1_555 1_555
C11A C16A 1_555 1_555
H8A C16A 1_555 1_555
C4A C8A 1_555 1_555
H6A C8A 1_555 1_555
C11B C16B 1_555 1_555
H8B C16B 1_555 1_555
C4B C8B 1_555 1_555
H6B C8B 1_555 1_555
C11C C16C 1_555 1_555
H8C C16C 1_555 1_555
C4C C8C 1_555 1_555
H6C C8C 1_555 1_555
C13A C9A 1_555 1_555
C5A C9A 1_555 1_555
C1A C3A 1_555 1_555
C13B C9B 1_555 1_555
C5B C9B 1_555 1_555
C1B C3B 1_555 1_555
C13C C9C 1_555 1_555
C5C C9C 1_555 1_555
C1C C3C 1_555 1_555
C7A C11A 1_555 1_555
C15A C11A 1_555 1_555
C2A C4A 1_555 1_555
C7B C11B 1_555 1_555
C15B C11B 1_555 1_555
C2B C4B 1_555 1_555
C7C C11C 1_555 1_555
C15C C11C 1_555 1_555
C2C C4C 1_555 1_555
O7A C13A 1_555 1_555
O8A C13A 1_555 1_555
H3A C5A 1_555 1_555
O1A C1A 1_555 1_555
O4A C1A 1_555 1_555
O7B C13B 1_555 1_555
O8B C13B 1_555 1_555
H3B C5B 1_555 1_555
O1B_2 C1B 1_555 1_555
O4B_2 C1B 1_555 1_555
O7C C13C 1_555 1_555
O8C C13C 1_555 1_555
H3C C5C 1_555 1_555
O1C C1C 1_555 1_555
O4C C1C 1_555 1_555
H5A C7A 1_555 1_555
O9A C15A 1_555 1_555
O10A C15A 1_555 1_555
O2A C2A 1_555 1_555
O5A C2A 1_555 1_555
H5B C7B 1_555 1_555
O9B C15B 1_555 1_555
O10B C15B 1_555 1_555
O2B_2 C2B 1_555 1_555
O5B_2 C2B 1_555 1_555
H5C C7C 1_555 1_555
O9C C15C 1_555 1_555
O10C C15C 1_555 1_555
O2C C2C 1_555 1_555
O5C C2C 1_555 1_555
Cu3A O7A 1_555 1_555
Cu3D O8A 1_555 1_555
Cu1A O1A 1_555 1_555
Cu2A O4A 1_555 1_555
Cu3B O7B 1_555 1_555
Cu3G O8B 1_555 1_555
Cu1_2 O1B_2 1_555 1_555
Cu2_2 O4B_2 1_555 1_555
Cu3C O7C 1_555 1_555
Cu3F O8C 1_555 1_555
Cu1A_2 O1C 1_555 1_555
Cu2A_2 O4C 1_555 1_555
Cu3A_2 O9A 1_555 1_555
Cu3D_2 O10A 1_555 1_555
Cu1_3 O2B_2 1_555 1_555
Cu2_3 O5B_2 1_555 1_555
Cu1A_3 O2C 1_555 1_555
Cu2A_3 O5C 1_555 1_555
O3A Cu1A_3 1_555 1_555
O1A_2 Cu1A_3 1_555 1_555
O1C_2 Cu1A_3 1_555 1_555
O2A_2 Cu1A_3 1_555 1_555
O6A Cu2A_3 1_555 1_555
O4A_2 Cu2A_3 1_555 1_555
O4C_2 Cu2A_3 1_555 1_555
O5A_2 Cu2A_3 1_555 1_555
H1A O3A 1_555 1_555
H1C O3A 1_555 1_555
H2A O6A 1_555 1_555
H2C O6A 1_555 1_555
O5 C2 1_555 1_555
C10 C14 1_555 1_555
C12 C16 1_555 1_555
Cu3 Cu3E 1_555 1_555
N5 C19 1_555 1_555
C20 N6 1_555 1_555
C28 C31 1_555 1_555
C30 C32 1_555 1_555
Cu3_2 Cu3E_2 1_555 1_555
C24A C21A 1_555 1_555
C24B C21B 1_555 1_555
C24C C21C 1_555 1_555
C26A C22A 1_555 1_555
C26B C22B 1_555 1_555
C26C C22C 1_555 1_555
N3A N1A 1_555 1_555
N3B N1B 1_555 1_555
N3C N1C 1_555 1_555
N2A N4A 1_555 1_555
N2B N4B 1_555 1_555
N2C N4C 1_555 1_555
C3A C5A 1_555 1_555
C3B C5B 1_555 1_555
C3C C5C 1_555 1_555
C4A C7A 1_555 1_555
C4B C7B 1_555 1_555
C4C C7C 1_555 1_555
O2A Cu1A 1_555 1_555
O5A Cu2A 1_555 1_555
O9B Cu3B 1_555 1_555
O10B Cu3G 1_555 1_555
O9C Cu3C 1_555 1_555
O10C Cu3F 1_555 1_555
Cu3A Cu3D 1_555 1_555
Cu1A Cu2A 1_555 1_555
Cu3B Cu3G 1_555 1_555
Cu1_2 Cu2_2 1_555 1_555
Cu3C Cu3F 1_555 1_555
Cu1A_2 Cu2A_2 1_555 1_555
Cu3A_2 Cu3D_2 1_555 1_555
Cu1_3 Cu2_3 1_555 1_555
Cu1A_3 Cu2A_3 1_555 1_555

#END
