
#######################################################################
#
#                 Cambridge Crystallographic Data Centre
#                                CCDC 
#
#######################################################################
#
# If this CIF has been generated from an entry in the Cambridge 
# Structural Database, then it will include bibliographic, chemical, 
# crystal, experimental, refinement or atomic coordinate data resulting 
# from the CCDC's data processing and validation procedures.
#
#######################################################################

data_MUPYUS
_chemical_formula_moiety         '(C10 H12 Br1 Cd3 N15 O1)n'
_symmetry_cell_setting           orthorhombic
_symmetry_space_group_name_H-M   'C m c 21'
_symmetry_Int_Tables_number      36
_space_group_name_Hall           'C 2c -2'
loop_
_symmetry_equiv_pos_site_id
_symmetry_equiv_pos_as_xyz
1 x,y,z
2 -x,-y,1/2+z
3 x,-y,1/2+z
4 -x,y,z
5 1/2+x,1/2+y,z
6 1/2-x,1/2-y,1/2+z
7 1/2+x,1/2-y,1/2+z
8 1/2-x,1/2+y,z
_cell_length_a                   10.7383(11)
_cell_length_b                   26.276(3)
_cell_length_c                   7.8516(8)
_cell_angle_alpha                90
_cell_angle_beta                 90
_cell_angle_gamma                90
_cell_volume                     2215.4
loop_
_atom_site_label
_atom_site_type_symbol
_atom_site_fract_x
_atom_site_fract_y
_atom_site_fract_z
Cd1 Cd -0.5000 0.48908(6) -0.0327(3)
Cd2 Cd -0.0000 0.37592(10) 0.2540(7)
Cd3 Cd -0.5000 0.26027(7) -0.4539(3)
Br1 Br -0.0000 0.34464(18) -0.0599(9)
C1 C -0.246(2) 0.4329(8) 0.109(3)
H1 H -0.2316 0.4174 0.0043
C2 C -0.226(2) 0.4580(8) 0.367(3)
H2 H -0.1967 0.4633 0.4770
C3 C 0.258(2) 0.3201(9) 0.383(4)
H3 H 0.2813 0.3499 0.4379
C4 C 0.259(2) 0.2467(8) 0.285(3)
H4 H 0.2832 0.2138 0.2562
C5 C -0.5000 0.3851(10) -0.461(4)
H5 H -0.5000 0.3807 -0.5784
C6 C -0.5000 0.3691(9) -0.195(3)
H6 H -0.5000 0.3512 -0.0932
N1 N -0.3460(16) 0.4578(6) 0.144(2)
N2 N -0.3348(15) 0.4750(5) 0.311(2)
N3 N -0.1622(15) 0.4317(6) 0.243(2)
N4 N 0.1523(17) 0.3147(6) 0.304(2)
N5 N 0.1500(17) 0.2674(7) 0.241(2)
N6 N 0.3285(16) 0.2788(6) 0.376(2)
N7 N -0.5000 0.3480(8) -0.347(3)
N8 N -0.5000 0.4337(8) -0.373(2)
N9 N -0.5000 0.4196(8) -0.208(2)
O1 O 0.0000 0.3780(8) 0.598(3)
Cd1A Cd -0.5000 0.51092(6) 0.4673(3)
Cd1A_2 Cd -0.5000 0.51092(6) -0.5327(3)
Cd2_2 Cd -1.0000 0.37592(10) 0.2540(7)
Cd3E Cd 0.0000 0.23973(7) 0.0461(3)
Cd3_2 Cd 0.5000 0.26027(7) 0.5461(3)
Cd3_3 Cd -0.5000 0.26027(7) 0.5461(3)
Br1E Br -0.5000 0.15536(18) -0.5599(9)
C1C C -0.754(2) 0.4329(8) 0.109(3)
H1C H -0.7684 0.4174 0.0043
C2C C -0.774(2) 0.4580(8) 0.367(3)
H2C H -0.8033 0.4633 0.4770
C3C C -0.258(2) 0.3201(9) 0.383(4)
H3C H -0.2813 0.3499 0.4379
C4C C -0.259(2) 0.2467(8) 0.285(3)
H4C H -0.2832 0.2138 0.2562
N1C N -0.6540(16) 0.4578(6) 0.144(2)
N2C N -0.6652(15) 0.4750(5) 0.311(2)
N2A N -0.6652(15) 0.5250(5) -0.189(2)
N2B N -0.3348(15) 0.5250(5) -0.189(2)
N3C N -0.8378(15) 0.4317(6) 0.243(2)
N3C_2 N 0.1622(15) 0.4317(6) 0.243(2)
N4C N -0.1523(17) 0.3147(6) 0.304(2)
N5C N -0.1500(17) 0.2674(7) 0.241(2)
N5F N -0.3500(17) 0.2326(7) -0.259(2)
N5E N -0.6500(17) 0.2326(7) -0.259(2)
N6C N -0.3285(16) 0.2788(6) 0.376(2)
N6C_2 N -0.3285(16) 0.2788(6) -0.624(2)
N6_2 N -0.6715(16) 0.2788(6) -0.624(2)
N8A N -0.5000 0.5663(8) 0.127(2)
loop_
_geom_bond_atom_site_label_1
_geom_bond_atom_site_label_2
_geom_bond_site_symmetry_1
_geom_bond_site_symmetry_2
Cd1 N1 1_555 1_555
Cd2 Br1 1_555 1_555
Cd3 N7 1_555 1_555
Br1 Cd3E 1_555 1_555
C1 H1 1_555 1_555
C2 H2 1_555 1_555
C3 H3 1_555 1_555
C4 H4 1_555 1_555
C5 H5 1_555 1_555
C6 H6 1_555 1_555
N1 C1 1_555 1_555
N2 C2 1_555 1_555
N3 Cd2 1_555 1_555
N4 Cd2 1_555 1_555
N5 C4 1_555 1_555
N6 C3 1_555 1_555
N7 C5 1_555 1_555
N8 C5 1_555 1_555
N9 Cd1 1_555 1_555
O1 Cd2 1_555 1_555
Cd1A N2 1_555 1_555
Cd1A_2 N8 1_555 1_555
Cd2_2 N3C 1_555 1_555
Cd3E N5 1_555 1_555
Cd3_2 N6 1_555 1_555
Cd3_3 N6C 1_555 1_555
Br1E Cd3 1_555 1_555
C1C H1C 1_555 1_555
C2C H2C 1_555 1_555
C3C H3C 1_555 1_555
C4C H4C 1_555 1_555
N1C Cd1 1_555 1_555
N2C Cd1A 1_555 1_555
N2A Cd1 1_555 1_555
N2B Cd1 1_555 1_555
N3C C1C 1_555 1_555
N3C_2 Cd2 1_555 1_555
N4C Cd2 1_555 1_555
N5C Cd3E 1_555 1_555
N5F Cd3 1_555 1_555
N5E Cd3 1_555 1_555
N6C C3C 1_555 1_555
N6C_2 Cd3 1_555 1_555
N6_2 Cd3 1_555 1_555
N8A Cd1 1_555 1_555
C1 N3 1_555 1_555
C2 N3 1_555 1_555
C3 N4 1_555 1_555
C4 N6 1_555 1_555
C6 N7 1_555 1_555
C6 N9 1_555 1_555
N1 N2 1_555 1_555
N4 N5 1_555 1_555
N8 N9 1_555 1_555
C1C N1C 1_555 1_555
C2C N2C 1_555 1_555
C2C N3C 1_555 1_555
C3C N4C 1_555 1_555
C4C N5C 1_555 1_555
C4C N6C 1_555 1_555
N1C N2C 1_555 1_555
N4C N5C 1_555 1_555

#END
