
#######################################################################
#
#                 Cambridge Crystallographic Data Centre
#                                CCDC 
#
#######################################################################
#
# If this CIF has been generated from an entry in the Cambridge 
# Structural Database, then it will include bibliographic, chemical, 
# crystal, experimental, refinement or atomic coordinate data resulting 
# from the CCDC's data processing and validation procedures.
#
#######################################################################

data_GUPRIU
_chemical_formula_moiety         '(C28 H26 Co2 N4 O9)n'
_symmetry_cell_setting           monoclinic
_symmetry_space_group_name_H-M   'C 2/c'
_symmetry_Int_Tables_number      15
_space_group_name_Hall           '-C 2yc'
loop_
_symmetry_equiv_pos_site_id
_symmetry_equiv_pos_as_xyz
1 x,y,z
2 -x,y,1/2-z
3 1/2+x,1/2+y,z
4 1/2-x,1/2+y,1/2-z
5 -x,-y,-z
6 x,-y,1/2+z
7 1/2-x,1/2-y,-z
8 1/2+x,1/2-y,1/2+z
_cell_length_a                   15.133(4)
_cell_length_b                   16.577(4)
_cell_length_c                   14.787(6)
_cell_angle_alpha                90
_cell_angle_beta                 119.845(5)
_cell_angle_gamma                90
_cell_volume                     3217.49
loop_
_atom_site_label
_atom_site_type_symbol
_atom_site_fract_x
_atom_site_fract_y
_atom_site_fract_z
Co1 Co 0.09308(3) 0.12302(3) 0.20831(3)
O1 O 0.4096(2) 0.23266(15) 0.57717(17)
O2 O 0.51319(17) 0.31852(14) 0.55785(16)
O3 O 0.16501(17) 0.07394(14) 0.35979(16)
O4 O 0.02112(17) 0.03586(14) 0.35824(16)
O5 O 0.0000 0.19273(17) 0.2500
H1 H -0.0437 0.2273 0.1917
N1 N 0.2194(2) 0.20809(16) 0.2635(2)
N2 N 0.17301(19) -0.04723(16) 0.65623(19)
C1 C 0.3702(2) 0.2666(2) 0.4064(2)
C2 C 0.2841(2) 0.21767(19) 0.3665(2)
H2 H 0.2706 0.1902 0.4131
C3 C 0.2404(3) 0.2495(2) 0.1989(3)
H3 H 0.1971 0.2429 0.1276
C4 C 0.3223(3) 0.3016(2) 0.2309(3)
C5 C 0.3876(3) 0.3099(2) 0.3371(3)
H4 H 0.4431 0.3445 0.3617
C6 C 0.4368(3) 0.2733(2) 0.5233(3)
C7 C 0.3371(3) 0.3498(3) 0.1518(3)
H5 H 0.3697 0.3165 0.1238
H6 H 0.3790 0.3960 0.1853
H7 H 0.2721 0.3672 0.0964
C8 C 0.1740(2) 0.0248(2) 0.5156(2)
C9 C 0.1308(3) -0.0293(2) 0.5544(2)
H8 H 0.0697 -0.0541 0.5078
C10 C 0.2582(3) -0.0083(2) 0.7228(3)
H9 H 0.2874 -0.0202 0.7935
C11 C 0.3056(3) 0.0490(2) 0.6928(3)
C12 C 0.2632(3) 0.0639(2) 0.5867(3)
H10 H 0.2945 0.1000 0.5633
C13 C 0.1162(3) 0.04640(18) 0.4021(2)
C14 C 0.3987(3) 0.0936(3) 0.7744(3)
H11 H 0.3869 0.1115 0.8292
H12 H 0.4116 0.1394 0.7430
H13 H 0.4565 0.0582 0.8027
H1A H 0.0437 0.2273 0.3083
Co1A Co -0.09308(3) 0.12302(3) 0.29169(3)
O1A O -0.4096(2) 0.23266(15) -0.07717(17)
O2A O -0.51319(17) 0.31852(14) -0.05785(16)
O3A O -0.16501(17) 0.07394(14) 0.14021(16)
O4A O -0.02112(17) 0.03586(14) 0.14176(16)
N1A N -0.2194(2) 0.20809(16) 0.2365(2)
N2A N -0.17301(19) -0.04723(16) -0.15623(19)
C1A C -0.3702(2) 0.2666(2) 0.0936(2)
C2A C -0.2841(2) 0.21767(19) 0.1335(2)
H2A H -0.2706 0.1902 0.0869
C3A C -0.2404(3) 0.2495(2) 0.3011(3)
H3A H -0.1971 0.2429 0.3724
C4A C -0.3223(3) 0.3016(2) 0.2691(3)
C5A C -0.3876(3) 0.3099(2) 0.1629(3)
H4A H -0.4431 0.3445 0.1383
C6A C -0.4368(3) 0.2733(2) -0.0233(3)
C7A C -0.3371(3) 0.3498(3) 0.3482(3)
H5A H -0.3697 0.3165 0.3762
H6A H -0.3790 0.3960 0.3147
H7A H -0.2721 0.3672 0.4036
C8A C -0.1740(2) 0.0248(2) -0.0156(2)
C9A C -0.1308(3) -0.0293(2) -0.0544(2)
H8A H -0.0697 -0.0541 -0.0078
C10A C -0.2582(3) -0.0083(2) -0.2228(3)
H9A H -0.2874 -0.0202 -0.2935
C11A C -0.3056(3) 0.0490(2) -0.1928(3)
C12A C -0.2632(3) 0.0639(2) -0.0867(3)
H10A H -0.2945 0.1000 -0.0633
C13A C -0.1162(3) 0.04640(18) 0.0979(2)
C14A C -0.3987(3) 0.0936(3) -0.2744(3)
H11A H -0.3869 0.1115 -0.3292
H12A H -0.4116 0.1394 -0.2430
H13A H -0.4565 0.0582 -0.3027
Co1D Co -0.09308(3) -0.12302(3) -0.20831(3)
Co1E Co 0.09308(3) -0.12302(3) 0.70831(3)
Co1F Co -0.59308(3) 0.37698(3) -0.20831(3)
Co1G Co 0.59308(3) 0.37698(3) 0.70831(3)
O2F O -0.01319(17) 0.18148(14) 0.44215(16)
O2G O 0.01319(17) 0.18148(14) 0.05785(16)
N2D N -0.17301(19) 0.04723(16) 0.34377(19)
N2E N 0.17301(19) 0.04723(16) 0.15623(19)
loop_
_geom_bond_atom_site_label_1
_geom_bond_atom_site_label_2
_geom_bond_site_symmetry_1
_geom_bond_site_symmetry_2
Co1 O3 1_555 1_555
O1 C6 1_555 1_555
O2 C6 1_555 1_555
O3 C13 1_555 1_555
O4 C13 1_555 1_555
O5 Co1 1_555 1_555
H1 O5 1_555 1_555
N1 Co1 1_555 1_555
N2 C9 1_555 1_555
C1 C2 1_555 1_555
C2 N1 1_555 1_555
H2 C2 1_555 1_555
C3 N1 1_555 1_555
H3 C3 1_555 1_555
C4 C3 1_555 1_555
C5 C1 1_555 1_555
H4 C5 1_555 1_555
C6 C1 1_555 1_555
C7 C4 1_555 1_555
H5 C7 1_555 1_555
H6 C7 1_555 1_555
H7 C7 1_555 1_555
C8 C9 1_555 1_555
C9 H8 1_555 1_555
C10 N2 1_555 1_555
H9 C10 1_555 1_555
C11 C10 1_555 1_555
C12 C8 1_555 1_555
H10 C12 1_555 1_555
C13 C8 1_555 1_555
C14 C11 1_555 1_555
H11 C14 1_555 1_555
H12 C14 1_555 1_555
H13 C14 1_555 1_555
H1A O5 1_555 1_555
Co1A O4 1_555 1_555
O1A C6A 1_555 1_555
O2A C6A 1_555 1_555
O3A Co1A 1_555 1_555
O4A Co1 1_555 1_555
N1A Co1A 1_555 1_555
N2A C9A 1_555 1_555
C1A C2A 1_555 1_555
C2A N1A 1_555 1_555
H2A C2A 1_555 1_555
C3A N1A 1_555 1_555
H3A C3A 1_555 1_555
C4A C3A 1_555 1_555
C5A C1A 1_555 1_555
H4A C5A 1_555 1_555
C6A C1A 1_555 1_555
C7A C4A 1_555 1_555
H5A C7A 1_555 1_555
H6A C7A 1_555 1_555
H7A C7A 1_555 1_555
C8A C9A 1_555 1_555
C9A H8A 1_555 1_555
C10A N2A 1_555 1_555
H9A C10A 1_555 1_555
C11A C10A 1_555 1_555
C12A C8A 1_555 1_555
H10A C12A 1_555 1_555
C13A O3A 1_555 1_555
C14A C11A 1_555 1_555
H11A C14A 1_555 1_555
H12A C14A 1_555 1_555
H13A C14A 1_555 1_555
Co1D N2A 1_555 1_555
Co1E N2 1_555 1_555
Co1F O2A 1_555 1_555
Co1G O2 1_555 1_555
O2F Co1A 1_555 1_555
O2G Co1 1_555 1_555
N2D Co1A 1_555 1_555
N2E Co1 1_555 1_555
O5 Co1A 1_555 1_555
C4 C5 1_555 1_555
C11 C12 1_555 1_555
O4A C13A 1_555 1_555
C4A C5A 1_555 1_555
C8A C13A 1_555 1_555
C11A C12A 1_555 1_555

#END
