
#######################################################################
#
#                 Cambridge Crystallographic Data Centre
#                                CCDC 
#
#######################################################################
#
# If this CIF has been generated from an entry in the Cambridge 
# Structural Database, then it will include bibliographic, chemical, 
# crystal, experimental, refinement or atomic coordinate data resulting 
# from the CCDC's data processing and validation procedures.
#
#######################################################################

data_NUFBUN
_chemical_formula_moiety         '(C32 H28 N2 O20 Zn4)n'
_symmetry_cell_setting           monoclinic
_symmetry_space_group_name_H-M   'P 21/c'
_symmetry_Int_Tables_number      14
_space_group_name_Hall           '-P 2ybc'
loop_
_symmetry_equiv_pos_site_id
_symmetry_equiv_pos_as_xyz
1 x,y,z
2 -x,1/2+y,1/2-z
3 -x,-y,-z
4 x,1/2-y,1/2+z
_cell_length_a                   12.024(3)
_cell_length_b                   13.773(4)
_cell_length_c                   15.850(4)
_cell_angle_alpha                90
_cell_angle_beta                 99.093(5)
_cell_angle_gamma                90
_cell_volume                     2591.88
loop_
_atom_site_label
_atom_site_type_symbol
_atom_site_fract_x
_atom_site_fract_y
_atom_site_fract_z
Zn1 Zn 1.37139(3) 0.21356(3) 0.43228(2)
Zn2 Zn 1.25255(3) 0.10472(3) 0.24010(2)
O1 O 0.76037(17) 0.64198(18) 0.04370(13)
O2 O 0.83898(18) 0.56893(18) 0.16606(13)
O3 O 1.60148(18) 0.5582(2) 0.18146(16)
O4 O 1.49961(19) 0.62851(19) 0.06943(17)
C1 C 1.0195(2) 0.5160(2) 0.08625(18)
H1 H 1.0325 0.5270 0.1462
C2 C 1.4144(2) 0.5083(2) 0.14346(18)
C3 C 1.2184(2) 0.4634(2) 0.10284(17)
C4 C 1.1066(2) 0.4785(2) 0.04780(18)
C5 C 0.9143(2) 0.5380(2) 0.04048(18)
C6 C 1.3115(2) 0.5170(2) 0.08819(18)
H2 H 1.3055 0.5596 0.0405
C7 C 1.3301(3) 0.3894(2) 0.22512(19)
C8 C 0.8301(2) 0.5853(2) 0.08792(18)
C9 C 1.2282(2) 0.4001(2) 0.1717(2)
H3 H 1.1646 0.3639 0.1822
O5 O 1.2711(2) 0.2521(2) 0.29752(18)
C10 C 1.4228(2) 0.4448(2) 0.21283(19)
H4 H 1.4915 0.4395 0.2514
C11 C 1.5126(2) 0.5693(2) 0.13116(19)
O6 O 1.4017(2) 0.20897(18) 0.03841(16)
O7 O 1.3554(2) 0.1399(2) 0.15299(16)
O8 O 1.1047(2) 0.1496(3) 0.15862(18)
O9 O 1.4196(3) 0.3296(2) 0.35939(17)
C12 C 1.3398(3) 0.3197(3) 0.2973(2)
O10 O 1.2283(3) -0.0356(2) 0.18752(18)
C13 C 1.3333(3) 0.1953(2) 0.08974(19)
C14 C 1.1355(5) -0.0771(4) 0.1825(4)
H5 H 1.0832 -0.0485 0.2141
N1 N 1.1006(5) -0.1561(4) 0.1387(4)
C15 C 1.1680(9) -0.2009(6) 0.0856(6)
H6 H 1.1439 -0.1800 0.0265
H7 H 1.1604 -0.2716 0.0893
H8 H 1.2469 -0.1826 0.1039
C16 C 0.9955(7) -0.2010(6) 0.1393(7)
H9 H 1.0050 -0.2571 0.1777
H10 H 0.9646 -0.2224 0.0814
H11 H 0.9436 -0.1545 0.1593
O1B O 1.23963(17) 0.35802(18) -0.04370(13)
O2B O 1.16102(18) 0.43107(18) -0.16606(13)
O3B O 0.39852(18) 0.4418(2) -0.18146(16)
O4B O 0.50039(19) 0.37149(19) -0.06943(17)
C1B C 0.9805(2) 0.4840(2) -0.08625(18)
H1B H 0.9675 0.4730 -0.1462
C2B C 0.5856(2) 0.4917(2) -0.14346(18)
C3B C 0.7816(2) 0.5366(2) -0.10284(17)
C4B C 0.8934(2) 0.5215(2) -0.04780(18)
C5B C 1.0857(2) 0.4620(2) -0.04048(18)
C6B C 0.6885(2) 0.4830(2) -0.08819(18)
H2B H 0.6945 0.4404 -0.0405
C7B C 0.6699(3) 0.6106(2) -0.22512(19)
C8B C 1.1699(2) 0.4147(2) -0.08792(18)
C9B C 0.7718(2) 0.5999(2) -0.1717(2)
H3B H 0.8354 0.6361 -0.1822
O5B O 0.7289(2) 0.7479(2) -0.29752(18)
C10B C 0.5772(2) 0.5552(2) -0.21283(19)
H4B H 0.5085 0.5605 -0.2514
C11B C 0.4874(2) 0.4307(2) -0.13116(19)
O9B O 0.5804(3) 0.6704(2) -0.35939(17)
C12B C 0.6602(3) 0.6803(3) -0.2973(2)
Zn1B Zn 0.62861(3) 0.78644(3) -0.43228(2)
Zn2B Zn 0.74745(3) 0.89528(3) -0.24010(2)
O6B O 0.5983(2) 0.79103(18) -0.03841(16)
O7B O 0.6446(2) 0.8601(2) -0.15299(16)
O8B O 0.8953(2) 0.8504(3) -0.15862(18)
O10B O 0.7717(3) 1.0356(2) -0.18752(18)
C13B C 0.6667(3) 0.8047(2) -0.08974(19)
C14B C 0.8645(5) 1.0771(4) -0.1825(4)
H5B H 0.9168 1.0485 -0.2141
N1B N 0.8994(5) 1.1561(4) -0.1387(4)
C15B C 0.8320(9) 1.2009(6) -0.0856(6)
H6B H 0.8561 1.1800 -0.0265
H7B H 0.8396 1.2716 -0.0893
H8B H 0.7531 1.1826 -0.1039
C16B C 1.0045(7) 1.2010(6) -0.1393(7)
H9B H 0.9950 1.2571 -0.1777
H10B H 1.0354 1.2224 -0.0814
H11B H 1.0564 1.1545 -0.1593
Zn1A Zn 0.62861(3) 0.71356(3) 0.06772(2)
Zn1A_2 Zn 1.62861(3) 0.71356(3) 0.06772(2)
Zn1C Zn 0.37139(3) 0.28644(3) -0.06772(2)
Zn1C_2 Zn 1.37139(3) 0.28644(3) -0.06772(2)
Zn2A Zn 0.74745(3) 0.60472(3) 0.25990(2)
Zn2A_2 Zn 1.74745(3) 0.60472(3) 0.25990(2)
Zn2C Zn 0.25255(3) 0.39528(3) -0.25990(2)
Zn2C_2 Zn 1.25255(3) 0.39528(3) -0.25990(2)
O1A O 1.23963(17) 0.14198(18) 0.45630(13)
O1C O 0.76037(17) 0.85802(18) -0.45630(13)
O2A O 1.16102(18) 0.06893(18) 0.33394(13)
O2C O 0.83898(18) 0.93107(18) -0.33394(13)
O3A O 1.39852(18) 0.0582(2) 0.31854(16)
O3C O 0.60148(18) 0.9418(2) -0.31854(16)
O4A O 1.50039(19) 0.12851(19) 0.43057(17)
O4C O 0.49961(19) 0.87149(19) -0.43057(17)
O6A O 0.5983(2) 0.70897(18) -0.53841(16)
O6C O 1.4017(2) 0.29103(18) 0.53841(16)
loop_
_geom_bond_atom_site_label_1
_geom_bond_atom_site_label_2
_geom_bond_site_symmetry_1
_geom_bond_site_symmetry_2
Zn1 O5 1_555 1_555
Zn2 O5 1_555 1_555
O1 C8 1_555 1_555
O2 C8 1_555 1_555
O3 C11 1_555 1_555
O4 C11 1_555 1_555
C1 H1 1_555 1_555
C2 C6 1_555 1_555
C3 C4 1_555 1_555
C4 C1 1_555 1_555
C5 C1 1_555 1_555
C6 C3 1_555 1_555
H2 C6 1_555 1_555
C7 C9 1_555 1_555
C8 C5 1_555 1_555
C9 C3 1_555 1_555
H3 C9 1_555 1_555
O5 C12 1_555 1_555
C10 C2 1_555 1_555
H4 C10 1_555 1_555
C11 C2 1_555 1_555
O6 C13 1_555 1_555
O7 Zn2 1_555 1_555
O8 Zn2 1_555 1_555
O9 Zn1 1_555 1_555
C12 C7 1_555 1_555
O10 Zn2 1_555 1_555
C13 O7 1_555 1_555
C14 O10 1_555 1_555
H5 C14 1_555 1_555
N1 C14 1_555 1_555
C15 N1 1_555 1_555
H6 C15 1_555 1_555
H7 C15 1_555 1_555
H8 C15 1_555 1_555
C16 N1 1_555 1_555
H9 C16 1_555 1_555
H10 C16 1_555 1_555
H11 C16 1_555 1_555
O1B C8B 1_555 1_555
O2B C8B 1_555 1_555
O3B C11B 1_555 1_555
O4B C11B 1_555 1_555
C1B H1B 1_555 1_555
C2B C6B 1_555 1_555
C3B C4B 1_555 1_555
C4B C5 1_555 1_555
C5B C4 1_555 1_555
C6B C3B 1_555 1_555
H2B C6B 1_555 1_555
C7B C9B 1_555 1_555
C8B C5B 1_555 1_555
C9B C3B 1_555 1_555
H3B C9B 1_555 1_555
O5B C12B 1_555 1_555
C10B C2B 1_555 1_555
H4B C10B 1_555 1_555
C11B C2B 1_555 1_555
O9B C12B 1_555 1_555
C12B C7B 1_555 1_555
Zn1B O5B 1_555 1_555
Zn2B O5B 1_555 1_555
O6B C13B 1_555 1_555
O7B Zn2B 1_555 1_555
O8B Zn2B 1_555 1_555
O10B Zn2B 1_555 1_555
C13B O7B 1_555 1_555
C14B O10B 1_555 1_555
H5B C14B 1_555 1_555
N1B C14B 1_555 1_555
C15B N1B 1_555 1_555
H6B C15B 1_555 1_555
H7B C15B 1_555 1_555
H8B C15B 1_555 1_555
C16B N1B 1_555 1_555
H9B C16B 1_555 1_555
H10B C16B 1_555 1_555
H11B C16B 1_555 1_555
Zn1A O1 1_555 1_555
Zn1A_2 O4 1_555 1_555
Zn1C O4B 1_555 1_555
Zn1C_2 O6 1_555 1_555
Zn2A O2 1_555 1_555
Zn2A_2 O3 1_555 1_555
Zn2C O3B 1_555 1_555
Zn2C_2 O2B 1_555 1_555
O1A Zn1 1_555 1_555
O1C Zn1B 1_555 1_555
O2A Zn2 1_555 1_555
O2C Zn2B 1_555 1_555
O3A Zn2 1_555 1_555
O3C Zn2B 1_555 1_555
O4A Zn1 1_555 1_555
O4C Zn1B 1_555 1_555
O6A Zn1B 1_555 1_555
O6C Zn1 1_555 1_555
C7 C10 1_555 1_555
O9 C12 1_555 1_555
O1B Zn1C_2 1_555 1_555
C1B C4B 1_555 1_555
C1B C5B 1_555 1_555
C7B C10B 1_555 1_555
O9B Zn1B 1_555 1_555
O6B Zn1A 1_555 1_555

#END
