
#######################################################################
#
#                 Cambridge Crystallographic Data Centre
#                                CCDC 
#
#######################################################################
#
# If this CIF has been generated from an entry in the Cambridge 
# Structural Database, then it will include bibliographic, chemical, 
# crystal, experimental, refinement or atomic coordinate data resulting 
# from the CCDC's data processing and validation procedures.
#
#######################################################################

data_NUFBOH
_chemical_formula_moiety         '(C29 H27 N2 O15 Zn2 1-)n'
_symmetry_cell_setting           monoclinic
_symmetry_space_group_name_H-M   'C 2/c'
_symmetry_Int_Tables_number      15
_space_group_name_Hall           '-C 2yc'
loop_
_symmetry_equiv_pos_site_id
_symmetry_equiv_pos_as_xyz
1 x,y,z
2 -x,y,1/2-z
3 1/2+x,1/2+y,z
4 1/2-x,1/2+y,1/2-z
5 -x,-y,-z
6 x,-y,1/2+z
7 1/2-x,1/2-y,-z
8 1/2+x,1/2-y,1/2+z
_cell_length_a                   18.3439(3)
_cell_length_b                   8.80900(10)
_cell_length_c                   23.4388(4)
_cell_angle_alpha                90
_cell_angle_beta                 101.965(2)
_cell_angle_gamma                90
_cell_volume                     3705.22
loop_
_atom_site_label
_atom_site_type_symbol
_atom_site_fract_x
_atom_site_fract_y
_atom_site_fract_z
Zn1 Zn 0.42347(2) 0.70336(5) 0.696656(17)
O1 O 0.43929(14) -0.1784(3) 0.62234(10)
O2 O 0.5000 0.8441(4) 0.7500
O3 O 0.59560(13) 0.5951(3) 0.72867(10)
O4 O 0.81566(12) 0.1297(3) 0.65266(11)
C1 C 0.54861(18) 0.2997(4) 0.61971(14)
H1 H 0.4960 0.3105 0.6095
O5 O 0.82419(12) 0.3501(3) 0.69756(10)
O6 O 0.48394(13) 0.5275(3) 0.67640(11)
O7 O 0.53326(16) -0.0265(3) 0.66152(11)
C2 C 0.58351(18) 0.1875(4) 0.59322(13)
C3 C 0.48864(17) -0.0828(4) 0.61909(13)
C4 C 0.66772(17) 0.3799(4) 0.67584(14)
H2 H 0.6965 0.4458 0.7039
C5 C 0.55379(18) 0.5164(4) 0.69109(14)
C6 C 0.66076(18) 0.1722(4) 0.60808(14)
H3 H 0.6848 0.0964 0.5898
C7 C 0.70286(18) 0.2676(4) 0.64967(14)
C8 C 0.54369(17) 0.1181(4) 0.48919(14)
H4 H 0.5741 0.2000 0.4817
C9 C 0.59032(18) 0.3964(4) 0.66109(14)
C10 C 0.53959(17) 0.0871(4) 0.54692(14)
C11 C 0.49489(17) -0.0341(4) 0.55792(13)
C12 C 0.78591(18) 0.2476(4) 0.66721(14)
H5 H 0.490(3) 0.911(7) 0.778(3)
O1D O 0.56071(14) 0.1784(3) 0.37766(10)
O3D O 0.40440(13) -0.5951(3) 0.27133(10)
O4D O 0.18434(12) -0.1297(3) 0.34734(11)
C1D C 0.45139(18) -0.2997(4) 0.38029(14)
H1D H 0.5040 -0.3105 0.3905
O5D O 0.17581(12) -0.3501(3) 0.30244(10)
O6D O 0.51606(13) -0.5275(3) 0.32360(11)
O7D O 0.46674(16) 0.0265(3) 0.33848(11)
C2D C 0.41649(18) -0.1875(4) 0.40678(13)
C3D C 0.51136(17) 0.0828(4) 0.38091(13)
C4D C 0.33228(17) -0.3799(4) 0.32416(14)
H2D H 0.3035 -0.4458 0.2961
C5D C 0.44621(18) -0.5164(4) 0.30891(14)
C6D C 0.33924(18) -0.1722(4) 0.39192(14)
H3D H 0.3152 -0.0964 0.4102
C7D C 0.29714(18) -0.2676(4) 0.35033(14)
C8D C 0.45631(17) -0.1181(4) 0.51081(14)
H4D H 0.4259 -0.2000 0.5183
C9D C 0.40968(18) -0.3964(4) 0.33891(14)
C10D C 0.46041(17) -0.0871(4) 0.45308(14)
C11D C 0.50511(17) 0.0341(4) 0.44208(13)
C12D C 0.21409(18) -0.2476(4) 0.33279(14)
H5A H 0.510(3) 0.911(7) 0.722(3)
Zn1A Zn 0.57653(2) 0.70336(5) 0.803344(17)
Zn1_2 Zn 0.42347(2) -0.29664(5) 0.696656(17)
Zn1B Zn 0.92347(2) 0.20336(5) 0.696656(17)
Zn1D Zn 0.57653(2) -0.70336(5) 0.303344(17)
Zn1D_2 Zn 0.57653(2) 0.29664(5) 0.303344(17)
Zn1E Zn 0.42347(2) -0.70336(5) 0.196656(17)
Zn1F Zn 0.07653(2) -0.20336(5) 0.303344(17)
O1_2 O 0.43929(14) 0.8216(3) 0.62234(10)
O1A O 0.56071(14) 0.8216(3) 0.87766(10)
O3A O 0.40440(13) 0.5951(3) 0.77133(10)
O4B O 0.31566(12) 0.6297(3) 0.65266(11)
O4C O 0.68434(12) 0.6297(3) 0.84734(11)
O5B O 0.32419(12) 0.8501(3) 0.69756(10)
O5C O 0.67581(12) 0.8501(3) 0.80244(10)
O6A O 0.51606(13) 0.5275(3) 0.82360(11)
C13 C 0.6058(3) 0.8008(5) 0.2945(2)
H6 H 0.6061 0.8219 0.2535
H7 H 0.5657 0.8587 0.3062
H8 H 0.5977 0.6921 0.2995
N1 N 0.6778(2) 0.8455(5) 0.33106(18)
H9 H 0.6751 0.8368 0.3697
H10 H 0.6868 0.9458 0.3240
C14 C 0.7417(3) 0.7522(6) 0.3204(2)
H11 H 0.7466 0.7647 0.2798
H12 H 0.7327 0.6450 0.3278
H13 H 0.7877 0.7856 0.3465
C15 C 0.6526(3) 0.7843(6) 0.4867(2)
H14 H 0.6414 0.8518 0.5153
N2 N 0.6365(2) 0.6407(5) 0.49265(17)
O8 O 0.6807(3) 0.8416(6) 0.4484(2)
C16 C 0.6522(4) 0.5284(7) 0.4513(3)
H15 H 0.6781 0.5772 0.4236
H16 H 0.6053 0.4842 0.4301
H17 H 0.6837 0.4481 0.4723
C17 C 0.6061(4) 0.5877(8) 0.5405(3)
H18 H 0.6021 0.6726 0.5666
H19 H 0.6388 0.5096 0.5618
H20 H 0.5565 0.5445 0.5257
O9 O 0.7886(10) 0.383(2) 0.5448(8)
loop_
_geom_bond_atom_site_label_1
_geom_bond_atom_site_label_2
_geom_bond_site_symmetry_1
_geom_bond_site_symmetry_2
Zn1 O2 1_555 1_555
O1 C3 1_555 1_555
O2 H5 1_555 1_555
O3 C5 1_555 1_555
O4 C12 1_555 1_555
C1 H1 1_555 1_555
O5 C12 1_555 1_555
O6 Zn1 1_555 1_555
O7 C3 1_555 1_555
C2 C1 1_555 1_555
C3 C11 1_555 1_555
C4 H2 1_555 1_555
C5 O6 1_555 1_555
C6 C2 1_555 1_555
H3 C6 1_555 1_555
C7 C4 1_555 1_555
C8 H4 1_555 1_555
C9 C1 1_555 1_555
C10 C2 1_555 1_555
C11 C10 1_555 1_555
C12 C7 1_555 1_555
C13 H6 1_555 1_555
H7 C13 1_555 1_555
H8 C13 1_555 1_555
N1 C13 1_555 1_555
H9 N1 1_555 1_555
H10 N1 1_555 1_555
C14 N1 1_555 1_555
H11 C14 1_555 1_555
H12 C14 1_555 1_555
H13 C14 1_555 1_555
C15 H14 1_555 1_555
N2 C15 1_555 1_555
O8 C15 1_555 1_555
C16 N2 1_555 1_555
H15 C16 1_555 1_555
H16 C16 1_555 1_555
H17 C16 1_555 1_555
C17 N2 1_555 1_555
H18 C17 1_555 1_555
H19 C17 1_555 1_555
H20 C17 1_555 1_555
O1D C3D 1_555 1_555
O3D C5D 1_555 1_555
O4D C12D 1_555 1_555
C1D H1D 1_555 1_555
O5D C12D 1_555 1_555
O6D C5D 1_555 1_555
O7D C3D 1_555 1_555
C2D C1D 1_555 1_555
C3D C11D 1_555 1_555
C4D H2D 1_555 1_555
C5D C9D 1_555 1_555
C6D C2D 1_555 1_555
H3D C6D 1_555 1_555
C7D C4D 1_555 1_555
C8D C11 1_555 1_555
H4D C8D 1_555 1_555
C9D C1D 1_555 1_555
C10D C2D 1_555 1_555
C11D C8 1_555 1_555
C12D C7D 1_555 1_555
H5A O2 1_555 1_555
Zn1A O2 1_555 1_555
Zn1_2 O1 1_555 1_555
Zn1B O4 1_555 1_555
Zn1D O6D 1_555 1_555
Zn1D_2 O1D 1_555 1_555
Zn1E O3D 1_555 1_555
Zn1F O4D 1_555 1_555
O1_2 Zn1 1_555 1_555
O1A Zn1A 1_555 1_555
O3A Zn1 1_555 1_555
O4B Zn1 1_555 1_555
O4C Zn1A 1_555 1_555
O5B Zn1 1_555 1_555
O5C Zn1A 1_555 1_555
O6A Zn1A 1_555 1_555
O3 Zn1A 1_555 1_555
O5 Zn1B 1_555 1_555
C4 C9 1_555 1_555
C5 C9 1_555 1_555
C6 C7 1_555 1_555
C8 C10 1_555 1_555
O5D Zn1F 1_555 1_555
C4D C9D 1_555 1_555
C6D C7D 1_555 1_555
C8D C10D 1_555 1_555
C10D C11D 1_555 1_555

#END
