
#######################################################################
#
#                 Cambridge Crystallographic Data Centre
#                                CCDC 
#
#######################################################################
#
# If this CIF has been generated from an entry in the Cambridge 
# Structural Database, then it will include bibliographic, chemical, 
# crystal, experimental, refinement or atomic coordinate data resulting 
# from the CCDC's data processing and validation procedures.
#
#######################################################################

data_INOSOV
_chemical_formula_moiety         '(C3 H6 Co1 O2)n'
_symmetry_cell_setting           tetragonal
_symmetry_space_group_name_H-M   'I 41 2 2'
_symmetry_Int_Tables_number      98
_space_group_name_Hall           'I 4bw 2bw'
loop_
_symmetry_equiv_pos_site_id
_symmetry_equiv_pos_as_xyz
1 x,y,z
2 x,1/2-y,1/4-z
3 1/2-x,1/2-y,1/2+z
4 1/2-x,y,3/4-z
5 1/2+y,1/2+x,1/2-z
6 1/2+y,-x,3/4+z
7 -y,1/2+x,1/4+z
8 -y,-x,-z
9 1/2+x,1/2+y,1/2+z
10 1/2+x,-y,3/4-z
11 -x,-y,z
12 -x,1/2+y,1/4-z
13 y,x,-z
14 y,1/2-x,1/4+z
15 1/2-y,x,3/4+z
16 1/2-y,1/2-x,1/2-z
_cell_length_a                   11.0890(7)
_cell_length_b                   11.0890(7)
_cell_length_c                   15.7642(9)
_cell_angle_alpha                90
_cell_angle_beta                 90
_cell_angle_gamma                90
_cell_volume                     1938.46
loop_
_atom_site_label
_atom_site_type_symbol
_atom_site_fract_x
_atom_site_fract_y
_atom_site_fract_z
_atom_site_U_iso_or_equiv
_atom_site_thermal_displace_type
Co1 Co 0.13978(19) 0.5009(3) 0.32013(16) 0.0313 Uani
O1 O 0.1247(8) 0.5008(12) 0.1876(8) 0.0327 Uani
O2 O 0.306(2) 0.525(4) 0.3179(15) 0.4567 Uani
C1 C 0.232(2) 0.502(3) 0.1379(18) 0.0700 Uiso
C2 C 0.379(4) 0.503(4) 0.243(2) 0.1300 Uiso
H1 H 0.2594 0.5847 0.1332 0.0500 Uiso
H2 H 0.2118 0.4744 0.0812 0.0500 Uiso
C3 C 0.334(3) 0.426(3) 0.171(2) 0.0770 Uiso
H3 H 0.4539 0.4675 0.2626 0.0500 Uiso
H4 H 0.3992 0.5811 0.2193 0.0500 Uiso
H5 H 0.3064 0.3482 0.1909 0.0500 Uiso
H6 H 0.3963 0.4145 0.1284 0.0500 Uiso
O1D O 0.0008(12) 0.6247(8) 0.3124(8) 0.0327 Uani
O1O O -0.0008(12) 0.3753(8) 0.3124(8) 0.0327 Uani
O2C O 0.194(2) 0.525(4) 0.4321(15) 0.4567 Uani
Co1D Co 0.0009(3) 0.63978(19) 0.17987(16) 0.0313 Uani
Co1O Co -0.0009(3) 0.36022(19) 0.17987(16) 0.0313 Uani
Co1C Co 0.36022(19) 0.5009(3) 0.42987(16) 0.0313 Uani
Co1J Co -0.13978(19) 0.4991(3) 0.32013(16) 0.0313 Uani
loop_
_atom_site_aniso_label
_atom_site_aniso_U_11
_atom_site_aniso_U_22
_atom_site_aniso_U_33
_atom_site_aniso_U_23
_atom_site_aniso_U_13
_atom_site_aniso_U_12
Co1 0.0296(16) 0.0357(17) 0.0287(18) 0.0070(17) -0.0041(9) -0.0045(14)
O1 0.016(6) 0.044(8) 0.038(9) 0.030(10) 0.014(5) 0.026(7)
O2 0.11 1.12 0.14 0.41 -0.112 -0.34
O1D 0.044 0.016 0.038 -0.014 -0.03 0.026
O1O 0.044 0.016 0.038 0.014 0.03 0.026
O2C 0.11 1.12 0.14 -0.41 -0.112 0.34
Co1D 0.0357 0.0296 0.0287 0.0041 -0.007 -0.0045
Co1O 0.0357 0.0296 0.0287 -0.0041 0.007 -0.0045
Co1C 0.0296 0.0357 0.0287 -0.007 -0.0041 0.0045
Co1J 0.0357 0.0296 0.0287 0.0041 -0.007 -0.0045
loop_
_geom_bond_atom_site_label_1
_geom_bond_atom_site_label_2
_geom_bond_site_symmetry_1
_geom_bond_site_symmetry_2
Co1 O1 1_555 1_555
O1 C1 1_555 1_555
O2 Co1 1_555 1_555
C1 H1 1_555 1_555
C2 O2 1_555 1_555
H2 C1 1_555 1_555
C3 C1 1_555 1_555
H3 C2 1_555 1_555
H4 C2 1_555 1_555
H5 C3 1_555 1_555
H6 C3 1_555 1_555
O1D Co1 1_555 1_555
O1O Co1 1_555 1_555
O2C Co1 1_555 1_555
Co1D O1 1_555 1_555
Co1O O1 1_555 1_555
Co1C O2 1_555 1_555
Co1J O1D 1_555 1_555
C2 C3 1_555 1_555
O1D Co1D 1_555 1_555
O1O Co1O 1_555 1_555
O1O Co1J 1_555 1_555
O2C Co1C 1_555 1_555

#END
