
#######################################################################
#
#                 Cambridge Crystallographic Data Centre
#                                CCDC 
#
#######################################################################
#
# If this CIF has been generated from an entry in the Cambridge 
# Structural Database, then it will include bibliographic, chemical, 
# crystal, experimental, refinement or atomic coordinate data resulting 
# from the CCDC's data processing and validation procedures.
#
#######################################################################

data_TISKOW
_chemical_formula_moiety         '(C32 H36 N18 O26 Zn7)n'
_symmetry_cell_setting           monoclinic
_symmetry_space_group_name_H-M   'C 2/c'
_symmetry_Int_Tables_number      15
_space_group_name_Hall           '-C 2yc'
loop_
_symmetry_equiv_pos_site_id
_symmetry_equiv_pos_as_xyz
1 x,y,z
2 1/2+x,1/2+y,z
3 -x,y,1/2-z
4 1/2-x,1/2+y,1/2-z
5 -x,-y,-z
6 1/2-x,1/2-y,-z
7 x,-y,1/2+z
8 1/2+x,1/2-y,1/2+z
_cell_length_a                   25.192(2)
_cell_length_b                   14.2036(9)
_cell_length_c                   18.7190(16)
_cell_angle_alpha                90
_cell_angle_beta                 119.594(2)
_cell_angle_gamma                90
_cell_volume                     5824.2
loop_
_atom_site_label
_atom_site_type_symbol
_atom_site_fract_x
_atom_site_fract_y
_atom_site_fract_z
Zn1 Zn -0.5000 0.0000 -0.5000
Zn2 Zn -0.32162(3) 0.07970(4) -0.63508(3)
Zn3 Zn -0.31389(2) -0.30734(4) -0.42350(3)
Zn4 Zn -0.58938(3) -0.22079(4) -0.59473(4)
C1 C -0.4050(2) -0.1572(4) -0.4632(3)
H1 H -0.3732 -0.1142 -0.4375
C2 C -0.2242(2) -0.1624(4) -0.3776(3)
C3 C -0.2168(2) -0.0002(4) -0.4301(3)
C4 C -0.1826(3) 0.2379(4) -0.3286(4)
C5 C -0.5874(2) 0.0446(4) -0.6875(3)
H2 H -0.5711 0.1049 -0.6805
C6 C -0.6415(2) -0.0754(4) -0.7403(3)
H3 H -0.6707 -0.1166 -0.7775
C7 C -0.3633(3) 0.1584(4) -0.5232(4)
H4 H -0.3354 0.2076 -0.5077
C8 C -0.1989(2) 0.1362(4) -0.3435(3)
C9 C -0.5468(2) 0.2825(4) -0.4910(4)
H5 H -0.5374 0.3458 -0.4779
C10 C -0.2205(2) -0.0433(4) -0.5051(3)
C11 C -0.1867(3) 0.1100(5) -0.1991(4)
C12 C -0.2043(3) -0.0176(5) -0.2954(3)
H6 H -0.2037 -0.0563 -0.2548
C13 C -0.1957(3) 0.0768(4) -0.2808(4)
C14 C -0.2098(2) 0.0964(4) -0.4176(3)
H7 H -0.2125 0.1352 -0.4593
C15 C -0.4148(2) 0.0369(4) -0.5806(3)
H8 H -0.4300 -0.0161 -0.6138
C16 C -0.2139(2) -0.0583(4) -0.3680(3)
N1 N -0.56700(19) -0.0189(3) -0.6293(3)
N2 N -0.60199(19) -0.0976(3) -0.6634(3)
N3 N -0.50549(19) 0.2159(3) -0.4718(3)
N4 N -0.3969(2) -0.2490(3) -0.4690(3)
N5 N -0.3700(2) 0.0915(4) -0.5781(3)
N6 N -0.6344(2) 0.0136(3) -0.7585(3)
N7 N -0.4009(2) 0.1459(3) -0.4941(3)
N8 N -0.46297(19) -0.1343(3) -0.4979(3)
N9 N -0.4347(2) 0.0660(3) -0.5318(3)
O1 O -0.3158(2) 0.2614(4) -0.3375(3)
O3 O -0.4195(2) 0.3070(3) -0.3163(3)
O5 O -0.2179(2) 0.1768(5) -0.1988(3)
O7 O -0.27601(18) -0.1877(3) -0.4320(2)
O9 O -0.1498(4) 0.0698(4) -0.1351(3)
O10 O -0.24837(19) 0.5070(3) -0.4252(2)
O11 O -0.18835(18) -0.1149(3) -0.4923(2)
O12 O -0.1340(2) 0.2615(3) -0.2705(4)
O13 O -0.2795(2) 0.2030(3) -0.6178(3)
O14 O -0.1839(2) -0.2173(3) -0.3284(3)
O15 O -0.4110(4) 0.3520(5) -0.4721(6)
Zn2E Zn -0.17838(3) 0.42030(4) -0.36492(3)
Zn2B Zn -0.67838(3) 0.07970(4) -0.86492(3)
Zn2F Zn -0.32162(3) -0.07970(4) -0.13508(3)
Zn2D Zn -0.67838(3) -0.07970(4) -0.36492(3)
Zn3C Zn -0.18611(2) 0.19266(4) -0.07650(3)
Zn3D Zn -0.68611(2) 0.30734(4) -0.57650(3)
Zn3E Zn -0.18611(2) -0.19266(4) -0.57650(3)
Zn3_2 Zn -0.31389(2) 0.69266(4) -0.42350(3)
Zn3F Zn -0.31389(2) 0.30734(4) -0.92350(3)
Zn3E_2 Zn -0.18611(2) 0.80734(4) -0.57650(3)
Zn4D Zn -0.41062(3) 0.22079(4) -0.40527(4)
C1D C -0.5950(2) 0.1572(4) -0.5368(3)
H1D H -0.6268 0.1142 -0.5625
C2E C -0.2758(2) 0.6624(4) -0.6224(3)
C3E C -0.2832(2) 0.5002(4) -0.5699(3)
C4E C -0.3174(3) 0.2621(4) -0.6714(4)
C5D C -0.4126(2) -0.0446(4) -0.3125(3)
H2D H -0.4289 -0.1049 -0.3195
C6D C -0.3585(2) 0.0754(4) -0.2597(3)
H3D H -0.3293 0.1166 -0.2225
C7D C -0.6367(3) -0.1584(4) -0.4768(4)
H4D H -0.6646 -0.2076 -0.4923
C8E C -0.3011(2) 0.3638(4) -0.6565(3)
C9D C -0.4532(2) -0.2825(4) -0.5090(4)
H5D H -0.4626 -0.3458 -0.5221
C10E C -0.2795(2) 0.5433(4) -0.4949(3)
C11E C -0.3133(3) 0.3900(5) -0.8009(4)
C12E C -0.2957(3) 0.5176(5) -0.7046(3)
H6E H -0.2963 0.5563 -0.7452
C13E C -0.3043(3) 0.4232(4) -0.7192(4)
C14E C -0.2902(2) 0.4036(4) -0.5824(3)
H7E H -0.2875 0.3648 -0.5407
C15D C -0.5852(2) -0.0369(4) -0.4194(3)
H8D H -0.5700 0.0161 -0.3862
C16E C -0.2861(2) 0.5583(4) -0.6320(3)
N1D N -0.43300(19) 0.0189(3) -0.3707(3)
N2D N -0.39801(19) 0.0976(3) -0.3366(3)
N3D N -0.49451(19) -0.2159(3) -0.5282(3)
N4D N -0.6031(2) 0.2490(3) -0.5310(3)
N5B N -0.6300(2) 0.0915(4) -0.9219(3)
N5D N -0.6300(2) -0.0915(4) -0.4219(3)
N6B N -0.3656(2) 0.0136(3) -0.7415(3)
N6D N -0.3656(2) -0.0136(3) -0.2415(3)
N7D N -0.5991(2) -0.1459(3) -0.5059(3)
N8D N -0.53703(19) 0.1343(3) -0.5021(3)
N9D N -0.5653(2) -0.0660(3) -0.4682(3)
O1D O -0.6842(2) -0.2614(4) -0.6625(3)
O3D O -0.5805(2) -0.3070(3) -0.6837(3)
O5G O -0.7179(2) 0.3232(5) -0.6988(3)
O5C O -0.2821(2) -0.3232(5) -0.3012(3)
O5E O -0.2821(2) 0.3232(5) -0.8012(3)
O7D O -0.72399(18) 0.1877(3) -0.5680(2)
O7E O -0.22399(18) 0.6877(3) -0.5680(2)
O9G O -0.6498(4) 0.4302(4) -0.6351(3)
O9C O -0.3502(4) -0.4302(4) -0.3649(3)
O9E O -0.3502(4) 0.4302(4) -0.8649(3)
O10E O -0.25163(19) -0.0070(3) -0.5748(2)
O10G O -0.74837(19) -0.0070(3) -0.9252(2)
O11A O -0.68835(18) 0.3851(3) -0.4923(2)
O11E O -0.31165(18) -0.3851(3) -0.5077(2)
O11E_2 O -0.31165(18) 0.6149(3) -0.5077(2)
O12E O -0.3660(2) 0.2385(3) -0.7295(4)
O13B O -0.7205(2) 0.2030(3) -0.8822(3)
O13E O -0.2205(2) 0.2970(3) -0.3822(3)
O14E O -0.3161(2) 0.7173(3) -0.6716(3)
O15D O -0.5890(4) -0.3520(5) -0.5279(6)
O2 O -0.3664(7) 0.1580(9) -0.1083(7)
O4 O 0.0467(8) 0.0167(8) 0.1151(9)
O6 O -0.4853(11) -0.3251(17) -0.3383(15)
O8 O -0.0648(7) 0.0672(17) 0.1568(12)
loop_
_geom_bond_atom_site_label_1
_geom_bond_atom_site_label_2
_geom_bond_site_symmetry_1
_geom_bond_site_symmetry_2
Zn1 N1 1_555 1_555
Zn2 N5 1_555 1_555
Zn3 N4 1_555 1_555
Zn4 N2 1_555 1_555
C1 H1 1_555 1_555
C2 C16 1_555 1_555
C3 C10 1_555 1_555
C4 C8 1_555 1_555
C5 H2 1_555 1_555
C6 H3 1_555 1_555
C7 H4 1_555 1_555
C8 C13 1_555 1_555
C9 H5 1_555 1_555
C10 O11 1_555 1_555
C11 C13 1_555 1_555
C12 H6 1_555 1_555
C13 C12 1_555 1_555
C14 C3 1_555 1_555
H7 C14 1_555 1_555
C15 H8 1_555 1_555
C16 C3 1_555 1_555
N1 C5 1_555 1_555
N2 C6 1_555 1_555
N3 C9 1_555 1_555
N4 C1 1_555 1_555
N5 C7 1_555 1_555
N6 C5 1_555 1_555
N7 C7 1_555 1_555
N8 Zn1 1_555 1_555
N9 Zn1 1_555 1_555
O1 Zn4D 1_555 1_555
O3 Zn4D 1_555 1_555
O5 C11 1_555 1_555
O7 Zn3 1_555 1_555
O9 C11 1_555 1_555
O10 Zn2E 1_555 1_555
O11 Zn3E 1_555 1_555
O12 C4 1_555 1_555
O13 Zn2 1_555 1_555
O14 C2 1_555 1_555
O15 Zn4D 1_555 1_555
Zn2E O13E 1_555 1_555
Zn2B N6 1_555 1_555
Zn2F N6D 1_555 1_555
Zn2D N5D 1_555 1_555
Zn3C O5 1_555 1_555
Zn3D N4D 1_555 1_555
Zn3_2 O11E_2 1_555 1_555
Zn3F O5E 1_555 1_555
Zn3E_2 O7E 1_555 1_555
Zn4D N3 1_555 1_555
C1D H1D 1_555 1_555
C2E C16E 1_555 1_555
C3E C10E 1_555 1_555
C4E O13 1_555 1_555
C5D H2D 1_555 1_555
C6D H3D 1_555 1_555
C7D H4D 1_555 1_555
C8E C4E 1_555 1_555
C9D N4 1_555 1_555
H5D C9D 1_555 1_555
C10E O10 1_555 1_555
C11E C13E 1_555 1_555
C12E H6E 1_555 1_555
C13E C8E 1_555 1_555
C14E C3E 1_555 1_555
H7E C14E 1_555 1_555
C15D H8D 1_555 1_555
C16E C3E 1_555 1_555
N1D Zn1 1_555 1_555
N2D Zn4D 1_555 1_555
N3D Zn4 1_555 1_555
N4D C9 1_555 1_555
N5B Zn2B 1_555 1_555
N5D C7D 1_555 1_555
N6B Zn2 1_555 1_555
N6D C5D 1_555 1_555
N7D Zn4 1_555 1_555
N8D Zn1 1_555 1_555
N9D Zn1 1_555 1_555
O1D Zn4 1_555 1_555
O3D Zn4 1_555 1_555
O5G Zn3D 1_555 1_555
O5C Zn3 1_555 1_555
O5E C11E 1_555 1_555
O7D Zn3D 1_555 1_555
O7E C2E 1_555 1_555
O9G Zn3D 1_555 1_555
O9C Zn3 1_555 1_555
O9E Zn3F 1_555 1_555
O10E Zn2 1_555 1_555
O10G Zn2B 1_555 1_555
O11A Zn3D 1_555 1_555
O11E Zn3 1_555 1_555
O11E_2 C10E 1_555 1_555
O12E C4E 1_555 1_555
O13B Zn2B 1_555 1_555
O13E C4 1_555 1_555
O14E C2E 1_555 1_555
O15D Zn4 1_555 1_555
C1 N8 1_555 1_555
C2 O7 1_555 1_555
C6 N6 1_555 1_555
C8 C14 1_555 1_555
C10 O10E 1_555 1_555
C12 C16 1_555 1_555
C15 N5 1_555 1_555
C15 N9 1_555 1_555
N1 N2 1_555 1_555
N3 N8D 1_555 1_555
N7 N9 1_555 1_555
N7 Zn4D 1_555 1_555
N8 N3D 1_555 1_555
O9 Zn3C 1_555 1_555
C1D N4D 1_555 1_555
C1D N8D 1_555 1_555
C5D N1D 1_555 1_555
C6D N2D 1_555 1_555
C6D N6D 1_555 1_555
C7D N7D 1_555 1_555
C8E C14E 1_555 1_555
C9D N3D 1_555 1_555
C11E O9E 1_555 1_555
C12E C13E 1_555 1_555
C12E C16E 1_555 1_555
C15D N5D 1_555 1_555
C15D N9D 1_555 1_555
N1D N2D 1_555 1_555
N7D N9D 1_555 1_555

#END
