
#######################################################################
#
#                 Cambridge Crystallographic Data Centre
#                                CCDC 
#
#######################################################################
#
# If this CIF has been generated from an entry in the Cambridge 
# Structural Database, then it will include bibliographic, chemical, 
# crystal, experimental, refinement or atomic coordinate data resulting 
# from the CCDC's data processing and validation procedures.
#
#######################################################################

data_DUJQUW
_chemical_formula_moiety         '(C4 H4 N1 O8 Sc1)n'
_symmetry_cell_setting           hexagonal
_symmetry_space_group_name_H-M   'P 62 2 2'
_symmetry_Int_Tables_number      180
_space_group_name_Hall           'P 62 2 (0 0 4)'
loop_
_symmetry_equiv_pos_site_id
_symmetry_equiv_pos_as_xyz
1 x,y,z
2 -x,-y,z
3 -y,-x,2/3-z
4 y,x,2/3-z
5 x-y,-y,-z
6 -x+y,y,-z
7 x,x-y,1/3-z
8 -x,-x+y,1/3-z
9 -y,x-y,2/3+z
10 y,-x+y,2/3+z
11 x-y,x,1/3+z
12 -x+y,-x,1/3+z
_cell_length_a                   8.5940(8)
_cell_length_b                   8.5940(4)
_cell_length_c                   12.4441(5)
_cell_angle_alpha                90
_cell_angle_beta                 90
_cell_angle_gamma                120
_cell_volume                     795.948
loop_
_atom_site_label
_atom_site_type_symbol
_atom_site_fract_x
_atom_site_fract_y
_atom_site_fract_z
N1 N 0.0000 0.0000 0.1667
H1 H -0.0707 0.0244 0.1253
H1A H 0.0707 -0.0244 0.1253
H1F H -0.0707 -0.0951 0.2080
H1G H 0.0707 0.0951 0.2080
Sc1 Sc -0.5000 0.0000 0.0000
O1 O -0.3370(8) -0.0852(8) 0.0989(6)
C1 C -0.4107(18) -0.2054(9) 0.1667
O2 O -0.6924(8) -0.2487(9) 0.1044(6)
C2 C -0.6207(16) -0.3104(8) 0.1667
O1F O -0.3370(8) -0.2518(11) 0.2344(6)
O2F O -0.6924(8) -0.4437(12) 0.2289(6)
O1A O -0.6630(8) 0.0852(8) 0.0989(6)
C1A C -0.5893(18) 0.2054(9) 0.1667
O2A O -0.3076(8) 0.2487(9) 0.1044(6)
C2A C -0.3793(16) 0.3104(8) 0.1667
O1G O -0.6630(8) 0.2518(11) 0.2344(6)
O2G O -0.3076(8) 0.4437(12) 0.2289(6)
Sc1F Sc -0.5000 -0.5000 0.3333
Sc1F_2 Sc -0.5000 0.5000 0.3333
O1D O -0.2518(11) 0.0852(8) -0.0989(6)
O1E O -0.7482(11) -0.0852(8) -0.0989(6)
O2D O -0.4437(12) 0.2487(9) -0.1044(6)
O2E O -0.5563(12) -0.2487(9) -0.1044(6)
loop_
_geom_bond_atom_site_label_1
_geom_bond_atom_site_label_2
_geom_bond_site_symmetry_1
_geom_bond_site_symmetry_2
Sc1 O1 1_555 1_555
O1 C1 1_555 1_555
C1 C2 1_555 1_555
O2 Sc1 1_555 1_555
C2 O2 1_555 1_555
N1 H1 1_555 1_555
O1F C1 1_555 1_555
O2F C2 1_555 1_555
O1A Sc1 1_555 1_555
C1A O1A 1_555 1_555
O2A Sc1 1_555 1_555
C2A C1A 1_555 1_555
O1G C1A 1_555 1_555
O2G C2A 1_555 1_555
Sc1F O1F 1_555 1_555
Sc1F_2 O1G 1_555 1_555
O1D Sc1 1_555 1_555
O1E Sc1 1_555 1_555
O2D Sc1 1_555 1_555
O2E Sc1 1_555 1_555
H1A N1 1_555 1_555
H1F N1 1_555 1_555
H1G N1 1_555 1_555
O2F Sc1F 1_555 1_555
O2A C2A 1_555 1_555
O2G Sc1F_2 1_555 1_555

#END
