
#######################################################################
#
#                 Cambridge Crystallographic Data Centre
#                                CCDC 
#
#######################################################################
#
# If this CIF has been generated from an entry in the Cambridge 
# Structural Database, then it will include bibliographic, chemical, 
# crystal, experimental, refinement or atomic coordinate data resulting 
# from the CCDC's data processing and validation procedures.
#
#######################################################################

data_KUJFUS
_chemical_formula_moiety         '(C10 H18 K1 N1 O12 Sc1 1-)n'
_symmetry_cell_setting           monoclinic
_symmetry_space_group_name_H-M   'P 21/n'
_symmetry_Int_Tables_number      14
_space_group_name_Hall           '-P 2yn'
loop_
_symmetry_equiv_pos_site_id
_symmetry_equiv_pos_as_xyz
1 x,y,z
2 1/2-x,1/2+y,1/2-z
3 -x,-y,-z
4 1/2+x,1/2-y,1/2+z
_cell_length_a                   9.5369(2)
_cell_length_b                   9.15440(10)
_cell_length_c                   13.3131(2)
_cell_angle_alpha                90
_cell_angle_beta                 90.4830(10)
_cell_angle_gamma                90
_cell_volume                     1162.25
loop_
_atom_site_label
_atom_site_type_symbol
_atom_site_fract_x
_atom_site_fract_y
_atom_site_fract_z
Sc1 Sc 2.0000 0.0000 0.5000
K1 K 1.5000 -0.5000 0.5000
O1 O 1.81971(11) -0.11032(12) 0.45533(8)
C1 C 1.75445(16) -0.22767(17) 0.47194(11)
H1 H 1.8032 -0.3006 0.5061
O2 O 1.63367(12) -0.25480(12) 0.44754(8)
O3 O 1.90328(11) -0.80358(11) 0.45844(7)
C2 C 1.77879(17) -0.75781(17) 0.47021(11)
H2 H 1.7159 -0.8218 0.5000
O4 O 1.73391(13) -0.63821(14) 0.44620(9)
O5 O 1.58236(12) -0.47941(12) 0.85536(8)
C3 C 1.53467(17) -0.48777(16) 0.76651(12)
H3 H 1.4414 -0.5158 0.7595
O6 O 1.59753(12) -0.46320(14) 0.68947(8)
O1B O 1.18029(11) -0.88968(12) 0.54467(8)
C1B C 1.24555(16) -0.77233(17) 0.52806(11)
H1B H 1.1968 -0.6994 0.4939
O2B O 1.36633(12) -0.74520(12) 0.55246(8)
O3B O 1.09672(11) -0.19642(11) 0.54156(7)
C2B C 1.22121(17) -0.24219(17) 0.52979(11)
H2B H 1.2841 -0.1782 0.5000
O4B O 1.26609(13) -0.36179(14) 0.55380(9)
O5B O 1.41764(12) -0.52059(12) 0.14464(8)
C3B C 1.46533(17) -0.51223(16) 0.23349(12)
H3B H 1.5586 -0.4842 0.2405
O6B O 1.40247(12) -0.53680(14) 0.31053(8)
Sc1_2 Sc 1.0000 -1.0000 0.5000
Sc1_3 Sc 1.0000 0.0000 0.5000
Sc1_4 Sc 2.0000 -1.0000 0.5000
Sc1A Sc 1.5000 -0.5000 0.0000
Sc1A_2 Sc 1.5000 -0.5000 1.0000
O1B_2 O 2.18029(11) 0.11032(12) 0.54467(8)
O3_2 O 1.90328(11) 0.19642(11) 0.45844(7)
O3B_2 O 2.09672(11) -0.19642(11) 0.54156(7)
O5A O 1.91764(12) 0.02059(12) 0.64464(8)
O5C O 2.08236(12) -0.02059(12) 0.35536(8)
N1 N 1.51360(12) -0.01459(14) 0.74939(8)
C4 C 1.57517(17) -0.08087(18) 0.65723(11)
H4 H 1.5322 -0.0382 0.5987
H5 H 1.5586 -0.1843 0.6574
H6 H 1.6743 -0.0627 0.6564
C5 C 1.35846(16) -0.0362(2) 0.74770(12)
H7 H 1.3184 0.0077 0.8063
H8 H 1.3378 -0.1389 0.7471
H9 H 1.3194 0.0086 0.6886
C6 C 1.57458(17) -0.08562(18) 0.84072(11)
H10 H 1.6739 -0.0689 0.8429
H11 H 1.5566 -0.1887 0.8383
H12 H 1.5324 -0.0449 0.8996
C7 C 1.54646(18) 0.14454(17) 0.75210(11)
H13 H 1.5064 0.1873 0.8111
H14 H 1.5078 0.1909 0.6934
H15 H 1.6463 0.1579 0.7535
loop_
_geom_bond_atom_site_label_1
_geom_bond_atom_site_label_2
_geom_bond_site_symmetry_1
_geom_bond_site_symmetry_2
Sc1 O1 1_555 1_555
K1 O2 1_555 1_555
O1 C1 1_555 1_555
C1 H1 1_555 1_555
O2 C1 1_555 1_555
O3 C2 1_555 1_555
C2 H2 1_555 1_555
O4 K1 1_555 1_555
O5 C3 1_555 1_555
C3 H3 1_555 1_555
O6 K1 1_555 1_555
N1 C4 1_555 1_555
C4 H4 1_555 1_555
H5 C4 1_555 1_555
H6 C4 1_555 1_555
C5 N1 1_555 1_555
H7 C5 1_555 1_555
H8 C5 1_555 1_555
H9 C5 1_555 1_555
C6 N1 1_555 1_555
H10 C6 1_555 1_555
H11 C6 1_555 1_555
H12 C6 1_555 1_555
C7 N1 1_555 1_555
H13 C7 1_555 1_555
H14 C7 1_555 1_555
H15 C7 1_555 1_555
O1B C1B 1_555 1_555
C1B H1B 1_555 1_555
O2B K1 1_555 1_555
O3B C2B 1_555 1_555
C2B H2B 1_555 1_555
O4B K1 1_555 1_555
O5B C3B 1_555 1_555
C3B H3B 1_555 1_555
O6B K1 1_555 1_555
Sc1_2 O1B 1_555 1_555
Sc1_3 O3B 1_555 1_555
Sc1_4 O3 1_555 1_555
Sc1A O5B 1_555 1_555
Sc1A_2 O5 1_555 1_555
O1B_2 Sc1 1_555 1_555
O3_2 Sc1 1_555 1_555
O3B_2 Sc1 1_555 1_555
O5A Sc1 1_555 1_555
O5C Sc1 1_555 1_555
C2 O4 1_555 1_555
C3 O6 1_555 1_555
C1B O2B 1_555 1_555
C2B O4B 1_555 1_555
C3B O6B 1_555 1_555

#END
