
#######################################################################
#
#                 Cambridge Crystallographic Data Centre
#                                CCDC 
#
#######################################################################
#
# If this CIF has been generated from an entry in the Cambridge 
# Structural Database, then it will include bibliographic, chemical, 
# crystal, experimental, refinement or atomic coordinate data resulting 
# from the CCDC's data processing and validation procedures.
#
#######################################################################

data_SEJBAL
_chemical_formula_moiety         '(C36 H34 N4 Ni2 O15)n'
_symmetry_cell_setting           monoclinic
_symmetry_space_group_name_H-M   'C 2'
_symmetry_Int_Tables_number      5
_space_group_name_Hall           'C 2y'
loop_
_symmetry_equiv_pos_site_id
_symmetry_equiv_pos_as_xyz
1 x,y,z
2 -x,y,-z
3 1/2+x,1/2+y,z
4 1/2-x,1/2+y,-z
_cell_length_a                   24.444(12)
_cell_length_b                   8.242(4)
_cell_length_c                   11.259(5)
_cell_angle_alpha                90
_cell_angle_beta                 105.045(8)
_cell_angle_gamma                90
_cell_volume                     2190.57
loop_
_atom_site_label
_atom_site_type_symbol
_atom_site_fract_x
_atom_site_fract_y
_atom_site_fract_z
Ni1 Ni 0.31435(3) 0.80579(8) 0.56326(6)
C1 C 0.4517(2) 1.0949(7) 0.4447(5)
C2 C 0.4057(2) 1.0896(6) 0.4997(5)
C3 C 0.3565(2) 1.1728(6) 0.4412(4)
C4 C 0.3543(2) 1.2619(6) 0.3359(5)
H1 H 0.3216 1.3201 0.2993
C5 C 0.3999(2) 1.2658(6) 0.2842(5)
H2 H 0.3974 1.3238 0.2121
C6 C 0.4491(3) 1.1834(8) 0.3398(6)
H3 H 0.4801 1.1876 0.3067
C7 C 0.4112(2) 0.9966(8) 0.6173(5)
C8 C 0.3044(2) 1.1648(7) 0.4904(5)
C9 C 0.3571(2) 0.7469(6) 0.3425(5)
H4 H 0.3883 0.7086 0.4020
C10 C 0.3599(2) 0.7478(7) 0.2244(5)
H5 H 0.3916 0.7058 0.2044
C11 C 0.3152(2) 0.8116(9) 0.1312(4)
C12 C 0.2676(2) 0.8596(6) 0.1681(5)
H6 H 0.2357 0.8975 0.1105
C13 C 0.2679(2) 0.8509(7) 0.2888(5)
H7 H 0.2355 0.8840 0.3106
C14 C 0.2885(2) 0.9255(7) -0.2030(4)
H8 H 0.2680 1.0042 -0.2553
C15 C 0.2868(3) 0.9261(7) -0.0807(5)
H9 H 0.2652 1.0042 -0.0542
C16 C 0.31580(18) 0.8164(8) 0.0010(4)
C17 C 0.3483(2) 0.7012(6) -0.0444(5)
H10 H 0.3691 0.6222 0.0070
C18 C 0.3485(2) 0.7092(7) -0.1683(5)
H11 H 0.3709 0.6355 -0.1970
N1 N 0.31188(18) 0.7979(8) 0.3793(4)
N2 N 0.31799(16) 0.8173(7) -0.2489(4)
O1 O 0.40139(15) 0.8461(4) 0.6139(3)
O2 O 0.43055(16) 1.0746(5) 0.7156(3)
O3 O 0.29588(16) 1.0494(5) 0.5520(3)
O4 O 0.27153(14) 1.2849(5) 0.4624(3)
O5 O 0.5000 1.0036(7) 0.5000
O6 O 0.32919(17) 0.5627(5) 0.5735(3)
H12 H 0.3260 0.5252 0.5017
H13 H 0.3612 0.5455 0.6167
Ni1_2 Ni 0.31435(3) 0.80579(8) 1.56326(6)
Ni1_3 Ni 0.31435(3) 0.80579(8) -0.43674(6)
Ni1C Ni 0.18565(3) 1.30579(8) 0.43674(6)
Ni1A Ni 0.68565(3) 0.80579(8) 0.43674(6)
Ni1B Ni 0.81435(3) 1.30579(8) 0.56326(6)
C1A C 0.5483(2) 1.0949(7) 0.5553(5)
C2A C 0.5943(2) 1.0896(6) 0.5003(5)
C3A C 0.6435(2) 1.1728(6) 0.5588(4)
C4A C 0.6457(2) 1.2619(6) 0.6641(5)
H1A H 0.6784 1.3201 0.7007
C5A C 0.6001(2) 1.2658(6) 0.7158(5)
H2A H 0.6026 1.3238 0.7879
C6A C 0.5509(3) 1.1834(8) 0.6602(6)
H3A H 0.5199 1.1876 0.6933
C7A C 0.5888(2) 0.9966(8) 0.3827(5)
C8A C 0.6956(2) 1.1648(7) 0.5096(5)
C9_2 C 0.3571(2) 0.7469(6) 1.3425(5)
H4_2 H 0.3883 0.7086 1.4020
C10_2 C 0.3599(2) 0.7478(7) 1.2244(5)
H5_2 H 0.3916 0.7058 1.2044
C11_2 C 0.3152(2) 0.8116(9) 1.1312(4)
C12_2 C 0.2676(2) 0.8596(6) 1.1681(5)
H6_2 H 0.2357 0.8975 1.1105
C13_2 C 0.2679(2) 0.8509(7) 1.2888(5)
H7_2 H 0.2355 0.8840 1.3106
C14_2 C 0.2885(2) 0.9255(7) 0.7970(4)
H8_2 H 0.2680 1.0042 0.7447
C15_2 C 0.2868(3) 0.9261(7) 0.9193(5)
H9_2 H 0.2652 1.0042 0.9458
C16_2 C 0.31580(18) 0.8164(8) 1.0010(4)
C17_2 C 0.3483(2) 0.7012(6) 0.9556(5)
H10_2 H 0.3691 0.6222 1.0070
C18_2 C 0.3485(2) 0.7092(7) 0.8317(5)
H11_2 H 0.3709 0.6355 0.8030
N1_2 N 0.31188(18) 0.7979(8) 1.3793(4)
N2_2 N 0.31799(16) 0.8173(7) 0.7511(4)
N2_3 N 0.31799(16) 0.8173(7) 1.7511(4)
O1A O 0.59861(15) 0.8461(4) 0.3861(3)
O1_2 O 0.40139(15) 0.8461(4) 1.6139(3)
O2A O 0.56945(16) 1.0746(5) 0.2844(3)
O3A O 0.70412(16) 1.0494(5) 0.4480(3)
O3_2 O 0.29588(16) 1.0494(5) 1.5520(3)
O4A O 0.72847(14) 1.2849(5) 0.5376(3)
O4C O 0.22847(14) 0.7849(5) 0.5376(3)
O4C_2 O 0.22847(14) 0.7849(5) 1.5376(3)
O6_2 O 0.32919(17) 0.5627(5) 1.5735(3)
H12_2 H 0.3260 0.5252 1.5017
H13_2 H 0.3612 0.5455 1.6167
O7 O 0.42353(16) 0.4115(5) 0.7068(3)
H14 H 0.4522 0.4447 0.6844
H15 H 0.4199 0.3097 0.6958
O8 O 0.50308(16) 0.8376(5) 0.8832(3)
H16 H 0.5350 0.8140 0.9315
H17 H 0.5078 0.9048 0.8294
O9 O 0.4218(4) 0.1682(10) 0.9701(8)
H18 H 0.4268 0.1559 1.0462
H19 H 0.3853 0.1567 0.9354
O10 O 0.49037(17) 0.6198(5) 0.6125(3)
H20 H 0.5218 0.5743 0.6142
H21 H 0.4965 0.7081 0.6529
loop_
_geom_bond_atom_site_label_1
_geom_bond_atom_site_label_2
_geom_bond_site_symmetry_1
_geom_bond_site_symmetry_2
Ni1 N1 1_555 1_555
C1 C2 1_555 1_555
C2 C3 1_555 1_555
C3 C4 1_555 1_555
C4 H1 1_555 1_555
C5 C4 1_555 1_555
H2 C5 1_555 1_555
C6 C1 1_555 1_555
H3 C6 1_555 1_555
C7 C2 1_555 1_555
C8 C3 1_555 1_555
C9 H4 1_555 1_555
C10 C9 1_555 1_555
H5 C10 1_555 1_555
C11 C10 1_555 1_555
C12 C11 1_555 1_555
H6 C12 1_555 1_555
C13 C12 1_555 1_555
H7 C13 1_555 1_555
C14 H8 1_555 1_555
C15 C14 1_555 1_555
H9 C15 1_555 1_555
C16 C11 1_555 1_555
C17 C16 1_555 1_555
H10 C17 1_555 1_555
C18 C17 1_555 1_555
H11 C18 1_555 1_555
N1 C9 1_555 1_555
N2 C14 1_555 1_555
O1 Ni1 1_555 1_555
O2 C7 1_555 1_555
O3 Ni1 1_555 1_555
O4 C8 1_555 1_555
O5 C1 1_555 1_555
O6 Ni1 1_555 1_555
H12 O6 1_555 1_555
H13 O6 1_555 1_555
O7 H14 1_555 1_555
H15 O7 1_555 1_555
O8 H16 1_555 1_555
H17 O8 1_555 1_555
O9 H18 1_555 1_555
H19 O9 1_555 1_555
O10 H20 1_555 1_555
H21 O10 1_555 1_555
Ni1_2 N1_2 1_555 1_555
Ni1_3 N2 1_555 1_555
Ni1C O4 1_555 1_555
Ni1A O1A 1_555 1_555
Ni1B O4A 1_555 1_555
C1A O5 1_555 1_555
C2A C1A 1_555 1_555
C3A C2A 1_555 1_555
C4A C3A 1_555 1_555
H1A C4A 1_555 1_555
C5A C4A 1_555 1_555
H2A C5A 1_555 1_555
C6A C1A 1_555 1_555
H3A C6A 1_555 1_555
C7A C2A 1_555 1_555
C8A C3A 1_555 1_555
C9_2 H4_2 1_555 1_555
C10_2 C9_2 1_555 1_555
H5_2 C10_2 1_555 1_555
C11_2 C10_2 1_555 1_555
C12_2 C11_2 1_555 1_555
H6_2 C12_2 1_555 1_555
C13_2 C12_2 1_555 1_555
H7_2 C13_2 1_555 1_555
C14_2 H8_2 1_555 1_555
C15_2 C14_2 1_555 1_555
H9_2 C15_2 1_555 1_555
C16_2 C11_2 1_555 1_555
C17_2 C16_2 1_555 1_555
H10_2 C17_2 1_555 1_555
C18_2 C17_2 1_555 1_555
H11_2 C18_2 1_555 1_555
N1_2 C9_2 1_555 1_555
N2_2 Ni1 1_555 1_555
N2_3 Ni1_2 1_555 1_555
O1A C7A 1_555 1_555
O1_2 Ni1_2 1_555 1_555
O2A C7A 1_555 1_555
O3A Ni1A 1_555 1_555
O3_2 Ni1_2 1_555 1_555
O4A C8A 1_555 1_555
O4C Ni1 1_555 1_555
O4C_2 Ni1_2 1_555 1_555
O6_2 Ni1_2 1_555 1_555
H12_2 O6_2 1_555 1_555
H13_2 O6_2 1_555 1_555
C5 C6 1_555 1_555
C7 O1 1_555 1_555
C8 O3 1_555 1_555
C13 N1 1_555 1_555
C15 C16 1_555 1_555
C18 N2 1_555 1_555
C5A C6A 1_555 1_555
C8A O3A 1_555 1_555
C13_2 N1_2 1_555 1_555
C14_2 N2_2 1_555 1_555
C15_2 C16_2 1_555 1_555
C18_2 N2_2 1_555 1_555

#END
