
#######################################################################
#
#                 Cambridge Crystallographic Data Centre
#                                CCDC 
#
#######################################################################
#
# If this CIF has been generated from an entry in the Cambridge 
# Structural Database, then it will include bibliographic, chemical, 
# crystal, experimental, refinement or atomic coordinate data resulting 
# from the CCDC's data processing and validation procedures.
#
#######################################################################

data_CUVVOG
_chemical_formula_moiety         '(C40 H28 N2 O10 Zn2)n'
_symmetry_cell_setting           hexagonal
_symmetry_space_group_name_H-M   'P 65 2 2'
_symmetry_Int_Tables_number      179
_space_group_name_Hall           'P 65 2 (0 0 1)'
loop_
_symmetry_equiv_pos_site_id
_symmetry_equiv_pos_as_xyz
1 x,y,z
2 x-y,x,5/6+z
3 -y,x-y,2/3+z
4 -x,-y,1/2+z
5 -x+y,-x,1/3+z
6 y,-x+y,1/6+z
7 x-y,-y,-z
8 -x,-x+y,1/3-z
9 y,x,2/3-z
10 -y,-x,1/6-z
11 -x+y,y,1/2-z
12 x,x-y,5/6-z
_cell_length_a                   15.9684(5)
_cell_length_b                   15.9684(5)
_cell_length_c                   33.649(4)
_cell_angle_alpha                90
_cell_angle_beta                 90
_cell_angle_gamma                120
_cell_volume                     7430.63
loop_
_atom_site_label
_atom_site_type_symbol
_atom_site_fract_x
_atom_site_fract_y
_atom_site_fract_z
O1 O 0.432(4) 0.918(4) 0.9030(16)
C1 C 0.9143(7) 0.5819(8) 0.9423(4)
C2 C 0.8708(5) 0.6405(4) 0.9532(2)
C3 C 0.8317(5) 0.6304(5) 0.9910(2)
H1 H 0.8360 0.5891 1.0093
C4 C 0.7862(5) 0.6821(5) 1.00147(19)
H2 H 0.7601 0.6753 1.0268
C5 C 0.7798(6) 0.7439(5) 0.9741(2)
C6 C 0.8188(7) 0.7540(6) 0.9363(2)
H3 H 0.8145 0.7953 0.9180
C7 C 0.8644(7) 0.7023(6) 0.92588(19)
H4 H 0.8905 0.7091 0.9006
C8 C 0.7243(8) 0.7962(7) 0.9835(4)
C9 C 0.7753(7) 0.8960(7) 0.9881(3)
H5 H 0.8423 0.9297 0.9856
C10 C 0.7261(7) 0.9463(7) 0.9967(4)
C11 C 0.6282(7) 0.8930(7) 1.0007(4)
H6 H 0.5955 0.9258 1.0071
C12 C 0.5735(8) 0.7932(9) 0.9960(5)
C13 C 0.6253(8) 0.7421(7) 0.9869(4)
C14 C 0.4683(7) 0.7392(6) 0.9980(4)
C15 C 0.2660(7) 0.6250(8) 0.9991(4)
C16 C 0.4184(11) 0.6914(13) 0.9629(4)
H7 H 0.4522 0.6977 0.9395
C17 C 0.3173(11) 0.6344(13) 0.9637(4)
H8 H 0.2839 0.6026 0.9409
C18 C 0.3165(11) 0.6724(13) 1.0333(4)
H9 H 0.2833 0.6666 1.0567
C19 C 0.4167(10) 0.7283(12) 1.0323(4)
H10 H 0.4498 0.7593 1.0553
C20 C 0.1584(10) 0.5582(9) 0.9997(6)
N1 N 0.5719(7) 0.6404(6) 0.9836(3)
H11 H 0.6061 0.6234 0.9675
H12 H 0.5172 0.6258 0.9704
O3 O 0.1129(7) 0.5366(10) 1.0325(4)
O4 O 0.1201(6) 0.5297(7) 0.9673(3)
O5 O 0.9162(6) 0.5249(6) 0.9674(3)
O6 O 0.9461(7) 0.5929(6) 0.9073(3)
Zn1 Zn 0.53190(9) 0.55007(9) 1.03182(5)
C1F C 1.3324(11) 1.4181(8) 1.0577(4)
C2F C 1.2303(6) 1.3595(4) 1.0468(2)
C3F C 1.2013(7) 1.3696(5) 1.0090(2)
H1F H 1.2469 1.4109 0.9907
C4F C 1.1041(7) 1.3179(5) 0.99853(19)
H2F H 1.0848 1.3247 0.9732
C5F C 1.0359(8) 1.2561(5) 1.0259(2)
C6F C 1.0648(9) 1.2460(6) 1.0637(2)
H3F H 1.0192 1.2047 1.0820
C7F C 1.1621(9) 1.2977(6) 1.07412(19)
H4F H 1.1814 1.2909 1.0994
C8F C 0.9281(11) 1.2038(7) 1.0165(4)
C9F C 0.8793(10) 1.1040(7) 1.0119(3)
H5F H 0.9126 1.0703 1.0144
C10F C 0.7798(10) 1.0537(7) 1.0033(4)
C11F C 0.7352(10) 1.1070(7) 0.9993(4)
H6F H 0.6697 1.0742 0.9929
C12F C 0.7803(12) 1.2068(9) 1.0040(5)
C13F C 0.8832(11) 1.2579(7) 1.0131(4)
C14F C 0.7291(9) 1.2608(6) 1.0020(4)
C15F C 0.6410(11) 1.3750(8) 1.0009(4)
C16F C 0.7270(17) 1.3086(13) 1.0371(4)
H7F H 0.7545 1.3023 1.0605
C17F C 0.6829(17) 1.3656(13) 1.0363(4)
H8F H 0.6813 1.3974 1.0591
C18F C 0.6441(17) 1.3276(13) 0.9667(4)
H9F H 0.6167 1.3334 0.9433
C19F C 0.6884(16) 1.2717(12) 0.9677(4)
H10F H 0.6905 1.2407 0.9447
C20F C 0.6002(13) 1.4418(9) 1.0003(6)
N1F N 0.9315(9) 1.3596(6) 1.0164(3)
H11F H 0.9827 1.3766 1.0325
H12F H 0.8914 1.3742 1.0296
O3F O 0.5763(12) 1.4634(10) 0.9675(4)
O4F O 0.5904(9) 1.4703(7) 1.0327(3)
O5F O 1.3913(8) 1.4751(6) 1.0326(3)
O6F O 1.3532(9) 1.4071(6) 1.0927(3)
Zn1F Zn 0.98183(13) 1.44993(9) 0.96818(5)
O4_2 O 1.1201(6) 1.5297(7) 0.9673(3)
O4F_2 O 0.5904(9) 0.4703(7) 1.0327(3)
O5_2 O 0.9162(6) 1.5249(6) 0.9674(3)
O5F_2 O 0.3913(8) 0.4751(6) 1.0326(3)
O6E O 0.5929(6) 0.6468(9) 1.0740(3)
O6K O 0.9461(7) 1.3532(9) 0.9260(3)
Zn1_2 Zn 0.53190(9) 1.55007(9) 1.03182(5)
Zn1_3 Zn 1.53190(9) 1.55007(9) 1.03182(5)
Zn1A Zn 0.98183(13) 0.53190(9) 0.86515(5)
Zn1F_2 Zn -0.01817(13) 0.44993(9) 0.96818(5)
Zn1F_3 Zn 0.98183(13) 0.44993(9) 0.96818(5)
Zn1I Zn 1.44993(9) 1.46810(9) 1.13485(5)
O7 O 0.173(5) 0.786(6) 0.940(2)
loop_
_geom_bond_atom_site_label_1
_geom_bond_atom_site_label_2
_geom_bond_site_symmetry_1
_geom_bond_site_symmetry_2
C1 C2 1_555 1_555
C2 C3 1_555 1_555
C3 H1 1_555 1_555
C4 C3 1_555 1_555
H2 C4 1_555 1_555
C5 C4 1_555 1_555
C6 C5 1_555 1_555
H3 C6 1_555 1_555
C7 C2 1_555 1_555
H4 C7 1_555 1_555
C8 C5 1_555 1_555
C9 C8 1_555 1_555
H5 C9 1_555 1_555
C10 C9 1_555 1_555
C11 C10 1_555 1_555
H6 C11 1_555 1_555
C12 C11 1_555 1_555
C13 C8 1_555 1_555
C14 C12 1_555 1_555
C15 C17 1_555 1_555
C16 C14 1_555 1_555
H7 C16 1_555 1_555
C17 C16 1_555 1_555
H8 C17 1_555 1_555
C18 C15 1_555 1_555
H9 C18 1_555 1_555
C19 C14 1_555 1_555
H10 C19 1_555 1_555
C20 C15 1_555 1_555
N1 C13 1_555 1_555
H11 N1 1_555 1_555
H12 N1 1_555 1_555
O3 C20 1_555 1_555
O4 C20 1_555 1_555
O5 C1 1_555 1_555
O6 C1 1_555 1_555
Zn1 N1 1_555 1_555
C1F C2F 1_555 1_555
C2F C3F 1_555 1_555
C3F H1F 1_555 1_555
C4F C3F 1_555 1_555
H2F C4F 1_555 1_555
C5F C4F 1_555 1_555
C6F C5F 1_555 1_555
H3F C6F 1_555 1_555
C7F C2F 1_555 1_555
H4F C7F 1_555 1_555
C8F C5F 1_555 1_555
C9F C8F 1_555 1_555
H5F C9F 1_555 1_555
C10F C10 1_555 1_555
C11F C10F 1_555 1_555
H6F C11F 1_555 1_555
C12F C11F 1_555 1_555
C13F C8F 1_555 1_555
C14F C12F 1_555 1_555
C15F C17F 1_555 1_555
C16F C14F 1_555 1_555
H7F C16F 1_555 1_555
C17F C16F 1_555 1_555
H8F C17F 1_555 1_555
C18F C15F 1_555 1_555
H9F C18F 1_555 1_555
C19F C14F 1_555 1_555
H10F C19F 1_555 1_555
C20F C15F 1_555 1_555
N1F C13F 1_555 1_555
H11F N1F 1_555 1_555
H12F N1F 1_555 1_555
O3F C20F 1_555 1_555
O4F C20F 1_555 1_555
O5F C1F 1_555 1_555
O6F C1F 1_555 1_555
Zn1F N1F 1_555 1_555
O4_2 Zn1F 1_555 1_555
O4F_2 Zn1 1_555 1_555
O5_2 Zn1F 1_555 1_555
O5F_2 Zn1 1_555 1_555
O6E Zn1 1_555 1_555
O6K Zn1F 1_555 1_555
Zn1_2 O4F 1_555 1_555
Zn1_3 O5F 1_555 1_555
Zn1A O6 1_555 1_555
Zn1F_2 O4 1_555 1_555
Zn1F_3 O5 1_555 1_555
Zn1I O6F 1_555 1_555
C6 C7 1_555 1_555
C12 C13 1_555 1_555
C18 C19 1_555 1_555
C6F C7F 1_555 1_555
C9F C10F 1_555 1_555
C12F C13F 1_555 1_555
C18F C19F 1_555 1_555

#END
