
#######################################################################
#
#                 Cambridge Crystallographic Data Centre
#                                CCDC 
#
#######################################################################
#
# If this CIF has been generated from an entry in the Cambridge 
# Structural Database, then it will include bibliographic, chemical, 
# crystal, experimental, refinement or atomic coordinate data resulting 
# from the CCDC's data processing and validation procedures.
#
#######################################################################

data_ONUCIL
_chemical_formula_moiety         '(C96 H66 O32 Zn8)n'
_symmetry_cell_setting           cubic
_symmetry_space_group_name_H-M   'I 21 3'
_symmetry_Int_Tables_number      199
_space_group_name_Hall           'I 2b 2c 3'
loop_
_symmetry_equiv_pos_site_id
_symmetry_equiv_pos_as_xyz
1 x,y,z
2 z,x,y
3 y,z,x
4 -y,1/2-z,x
5 z,-x,1/2-y
6 1/2-y,z,-x
7 -z,1/2-x,y
8 1/2-z,x,-y
9 y,-z,1/2-x
10 -x,1/2-y,z
11 x,-y,1/2-z
12 1/2-x,y,-z
13 1/2+x,1/2+y,1/2+z
14 1/2+z,1/2+x,1/2+y
15 1/2+y,1/2+z,1/2+x
16 1/2-y,-z,1/2+x
17 1/2+z,1/2-x,-y
18 -y,1/2+z,1/2-x
19 1/2-z,-x,1/2+y
20 -z,1/2+x,1/2-y
21 1/2+y,1/2-z,-x
22 1/2-x,-y,1/2+z
23 1/2+x,1/2-y,-z
24 -x,1/2+y,1/2-z
_cell_length_a                   28.8670(1)
_cell_length_b                   28.8670(1)
_cell_length_c                   28.8670(1)
_cell_angle_alpha                90
_cell_angle_beta                 90
_cell_angle_gamma                90
_cell_volume                     24055
loop_
_atom_site_label
_atom_site_type_symbol
_atom_site_fract_x
_atom_site_fract_y
_atom_site_fract_z
Zn1 Zn 0.41913(4) 1.08087(4) 0.91913(4)
Zn2 Zn 0.33682(4) 1.15621(4) 0.91581(4)
C1 C 0.3966(3) 0.8849(3) 0.7380(3)
C2 C 0.5886(3) 0.8679(3) 0.9666(3)
H1 H 0.5855 0.9016 0.9641
H2 H 0.6173 0.8580 0.9514
H3 H 0.5896 0.8590 0.9994
C3 C 0.5784(3) 0.7653(3) 0.9705(3)
H4 H 0.5714 0.7325 0.9657
H5 H 0.5749 0.7729 1.0034
H6 H 0.6103 0.7717 0.9608
O1 O 0.4438(2) 0.7853(2) 0.8701(2)
O2 O 0.3614(2) 0.90393(19) 0.72400(19)
O3 O 0.42057(19) 0.85269(19) 0.72095(19)
O4 O 0.4194(2) 1.0163(2) 0.9025(2)
C4 C 0.3969(4) 0.9983(4) 0.8698(4)
C5 C 0.4152(3) 0.9002(2) 0.78776(17)
C6 C 0.4419(3) 0.8701(2) 0.8141(2)
H7 H 0.4525 0.8418 0.8011
C7 C 0.4533(3) 0.8815(2) 0.8595(2)
C8 C 0.4379(3) 0.9229(2) 0.87856(17)
H8 H 0.4456 0.9307 0.9096
C9 C 0.4111(2) 0.95304(16) 0.8522(2)
C10 C 0.3997(2) 0.9417(2) 0.8068(2)
H9 H 0.3814 0.9623 0.7888
O5 O 0.3642(2) 1.01915(17) 0.8500(2)
C11 C 0.4788(4) 0.8509(3) 0.8948(4)
C12 C 0.5142(4) 0.87154(19) 0.9200(4)
C13 C 0.5466(4) 0.8442(2) 0.9429(4)
C14 C 0.5435(3) 0.7962(2) 0.9406(4)
C15 C 0.5081(4) 0.7755(2) 0.9154(4)
C16 C 0.4757(3) 0.8029(3) 0.8925(4)
O6 O 0.38131(14) 1.11869(14) 0.88131(14)
C1I C 0.6034(3) 0.6151(3) 0.7380(3)
C2I C 0.4114(3) 0.6321(3) 0.9666(3)
H1I H 0.4145 0.5984 0.9641
H2I H 0.3827 0.6420 0.9514
H3I H 0.4104 0.6410 0.9994
C3I C 0.4216(3) 0.7347(3) 0.9705(3)
H4I H 0.4286 0.7675 0.9657
H5I H 0.4251 0.7271 1.0034
H6I H 0.3897 0.7283 0.9608
O1I O 0.5562(2) 0.7147(2) 0.8701(2)
O2I O 0.6386(2) 0.59607(19) 0.72400(19)
O3I O 0.57943(19) 0.64731(19) 0.72095(19)
O4I O 0.5806(2) 0.4837(2) 0.9025(2)
C4I C 0.6031(4) 0.5017(4) 0.8698(4)
C5I C 0.5848(3) 0.5998(2) 0.78776(17)
C6I C 0.5581(3) 0.6299(2) 0.8141(2)
H7I H 0.5475 0.6582 0.8011
C7I C 0.5467(3) 0.6185(2) 0.8595(2)
C8I C 0.5621(3) 0.5771(2) 0.87856(17)
H8I H 0.5544 0.5693 0.9096
C9I C 0.5889(2) 0.54696(16) 0.8522(2)
C10I C 0.6003(2) 0.5583(2) 0.8068(2)
H9I H 0.6186 0.5377 0.7888
O5I O 0.6358(2) 0.48085(17) 0.8500(2)
C11I C 0.5212(4) 0.6491(3) 0.8948(4)
C12I C 0.4858(4) 0.62846(19) 0.9200(4)
C13I C 0.4534(4) 0.6558(2) 0.9429(4)
C14I C 0.4565(3) 0.7038(2) 0.9406(4)
C15I C 0.4919(4) 0.7245(2) 0.9154(4)
C16I C 0.5243(3) 0.6971(3) 0.8925(4)
Zn1G Zn 0.58087(4) 0.41913(4) 0.91913(4)
Zn2I Zn 0.66318(4) 0.34379(4) 0.91581(4)
O6G O 0.61869(14) 0.38131(14) 0.88131(14)
Zn2O Zn 0.34379(4) 1.08419(4) 0.83682(4)
C1O C 0.6151(3) 1.2620(3) 0.8966(3)
C2O C 0.6321(3) 1.0334(3) 1.0886(3)
H1O H 0.5984 1.0359 1.0855
H2O H 0.6420 1.0486 1.1173
H3O H 0.6410 1.0006 1.0896
C3O C 0.7347(3) 1.0295(3) 1.0784(3)
H4O H 0.7675 1.0343 1.0714
H5O H 0.7271 0.9966 1.0749
H6O H 0.7283 1.0392 1.1103
O1O O 0.7147(2) 1.1299(2) 0.9438(2)
O2O O 0.59607(19) 1.27600(19) 0.8614(2)
O3O O 0.64731(19) 1.27905(19) 0.92057(19)
O4O O 0.4837(2) 1.0975(2) 0.9194(2)
C4O C 0.5017(4) 1.1302(4) 0.8969(4)
C5O C 0.5998(2) 1.21224(17) 0.9152(3)
C6O C 0.6299(2) 1.1859(2) 0.9419(3)
H7O H 0.6582 1.1989 0.9525
C7O C 0.6185(2) 1.1405(2) 0.9533(3)
C8O C 0.5771(2) 1.12144(17) 0.9379(3)
H8O H 0.5693 1.0904 0.9456
C9O C 0.54696(16) 1.1478(2) 0.9111(2)
C10O C 0.5583(2) 1.1932(2) 0.8997(2)
H9O H 0.5377 1.2112 0.8814
O5O O 0.48085(17) 1.1500(2) 0.8642(2)
C11O C 0.6491(3) 1.1052(4) 0.9788(4)
C12O C 0.62846(19) 1.0800(4) 1.0142(4)
C13O C 0.6558(2) 1.0571(4) 1.0466(4)
C14O C 0.7038(2) 1.0594(4) 1.0435(3)
C15O C 0.7245(2) 1.0846(4) 1.0081(4)
C16O C 0.6971(3) 1.1075(4) 0.9757(3)
C1H C 0.8849(3) 1.2620(3) 1.1034(3)
C2H C 0.8679(3) 1.0334(3) 0.9114(3)
H1H H 0.9016 1.0359 0.9145
H2H H 0.8580 1.0486 0.8827
H3H H 0.8590 1.0006 0.9104
C3H C 0.7653(3) 1.0295(3) 0.9216(3)
H4H H 0.7325 1.0343 0.9286
H5H H 0.7729 0.9966 0.9251
H6H H 0.7717 1.0392 0.8897
O1H O 0.7853(2) 1.1299(2) 1.0562(2)
O2H O 0.90393(19) 1.27600(19) 1.1386(2)
O3H O 0.85269(19) 1.27905(19) 1.07943(19)
O4H O 1.0163(2) 1.0975(2) 1.0806(2)
C4H C 0.9983(4) 1.1302(4) 1.1031(4)
C5H C 0.9002(2) 1.21224(17) 1.0848(3)
C6H C 0.8701(2) 1.1859(2) 1.0581(3)
H7H H 0.8418 1.1989 1.0475
C7H C 0.8815(2) 1.1405(2) 1.0467(3)
C8H C 0.9229(2) 1.12144(17) 1.0621(3)
H8H H 0.9307 1.0904 1.0544
C9H C 0.95304(16) 1.1478(2) 1.0889(2)
C10H C 0.9417(2) 1.1932(2) 1.1003(2)
H9H H 0.9623 1.2112 1.1186
O5H O 1.01915(17) 1.1500(2) 1.1358(2)
C11H C 0.8509(3) 1.1052(4) 1.0212(4)
C12H C 0.87154(19) 1.0800(4) 0.9858(4)
C13H C 0.8442(2) 1.0571(4) 0.9534(4)
C14H C 0.7962(2) 1.0594(4) 0.9565(3)
C15H C 0.7755(2) 1.0846(4) 0.9919(4)
C16H C 0.8029(3) 1.1075(4) 1.0243(3)
Zn2P Zn 0.41581(4) 1.16318(4) 0.84379(4)
C1P C 0.2380(3) 1.1034(3) 1.1151(3)
C2P C 0.4666(3) 0.9114(3) 1.1321(3)
H1P H 0.4641 0.9145 1.0984
H2P H 0.4514 0.8827 1.1420
H3P H 0.4994 0.9104 1.1410
C3P C 0.4705(3) 0.9216(3) 1.2347(3)
H4P H 0.4657 0.9286 1.2675
H5P H 0.5034 0.9251 1.2271
H6P H 0.4608 0.8897 1.2283
O1P O 0.3701(2) 1.0562(2) 1.2147(2)
O2P O 0.22400(19) 1.1386(2) 1.09607(19)
O3P O 0.22095(19) 1.07943(19) 1.14731(19)
O4P O 0.4025(2) 1.0806(2) 0.9837(2)
C4P C 0.3698(4) 1.1031(4) 1.0017(4)
C5P C 0.28776(17) 1.0848(3) 1.0998(2)
C6P C 0.3141(2) 1.0581(3) 1.1299(2)
H7P H 0.3011 1.0475 1.1582
C7P C 0.3595(2) 1.0467(3) 1.1185(2)
C8P C 0.37856(17) 1.0621(3) 1.0771(2)
H8P H 0.4096 1.0544 1.0693
C9P C 0.3522(2) 1.0889(2) 1.04696(16)
C10P C 0.3068(2) 1.1003(2) 1.0583(2)
H9P H 0.2888 1.1186 1.0377
O5P O 0.3500(2) 1.1358(2) 0.98085(17)
C11P C 0.3948(4) 1.0212(4) 1.1491(3)
C12P C 0.4200(4) 0.9858(4) 1.12846(19)
C13P C 0.4429(4) 0.9534(4) 1.1558(2)
C14P C 0.4406(4) 0.9565(3) 1.2038(2)
C15P C 0.4154(4) 0.9919(4) 1.2245(2)
C16P C 0.3925(4) 1.0243(3) 1.1971(3)
C1M C 0.2380(3) 0.8966(3) 1.3849(3)
C2M C 0.4666(3) 1.0886(3) 1.3679(3)
H1M H 0.4641 1.0855 1.4016
H2M H 0.4514 1.1173 1.3580
H3M H 0.4994 1.0896 1.3590
C3M C 0.4705(3) 1.0784(3) 1.2653(3)
H4M H 0.4657 1.0714 1.2325
H5M H 0.5034 1.0749 1.2729
H6M H 0.4608 1.1103 1.2717
O1M O 0.3701(2) 0.9438(2) 1.2853(2)
O2M O 0.22400(19) 0.8614(2) 1.40393(19)
O3M O 0.22095(19) 0.92057(19) 1.35269(19)
O4M O 0.4025(2) 0.9194(2) 1.5163(2)
C4M C 0.3698(4) 0.8969(4) 1.4983(4)
C5M C 0.28776(17) 0.9152(3) 1.4002(2)
C6M C 0.3141(2) 0.9419(3) 1.3701(2)
H7M H 0.3011 0.9525 1.3418
C7M C 0.3595(2) 0.9533(3) 1.3815(2)
C8M C 0.37856(17) 0.9379(3) 1.4229(2)
H8M H 0.4096 0.9456 1.4307
C9M C 0.3522(2) 0.9111(2) 1.45304(16)
C10M C 0.3068(2) 0.8997(2) 1.4417(2)
H9M H 0.2888 0.8814 1.4623
O5M O 0.3500(2) 0.8642(2) 1.51915(17)
C11M C 0.3948(4) 0.9788(4) 1.3509(3)
C12M C 0.4200(4) 1.0142(4) 1.37154(19)
C13M C 0.4429(4) 1.0466(4) 1.3442(2)
C14M C 0.4406(4) 1.0435(3) 1.2962(2)
C15M C 0.4154(4) 1.0081(4) 1.2755(2)
C16M C 0.3925(4) 0.9757(3) 1.3029(3)
Zn2E Zn 0.34379(4) 0.91581(4) 0.66318(4)
Zn2M Zn 0.41581(4) 0.83682(4) 0.65621(4)
Zn1E Zn 0.41913(4) 0.91913(4) 1.58087(4)
Zn1F Zn 1.08087(4) 1.08087(4) 1.08087(4)
Zn2A Zn 0.91581(4) 1.33682(4) 1.15621(4)
Zn2B Zn 0.15621(4) 0.91581(4) 1.33682(4)
Zn2F Zn 1.08419(4) 1.16318(4) 1.15621(4)
Zn2G Zn 0.58419(4) 0.33682(4) 0.84379(4)
Zn2G_2 Zn 0.58419(4) 1.33682(4) 0.84379(4)
Zn2H Zn 0.15621(4) 1.08419(4) 1.16318(4)
Zn2I_2 Zn 0.66318(4) 1.34379(4) 0.91581(4)
Zn2J Zn 0.33682(4) 0.84379(4) 1.58419(4)
Zn2K Zn 0.16318(4) 1.15621(4) 1.08419(4)
Zn2N Zn 0.65621(4) 0.41581(4) 0.83682(4)
Zn2R Zn 0.58419(4) 0.66318(4) 0.65621(4)
Zn2T Zn 0.65621(4) 0.58419(4) 0.66318(4)
Zn2U Zn 0.16318(4) 0.84379(4) 1.41581(4)
Zn2V Zn 0.83682(4) 1.34379(4) 1.08419(4)
O2A O 0.72400(19) 0.3614(2) 0.90393(19)
O2F O 0.27600(19) 1.1386(2) 0.90393(19)
O2J O 0.3614(2) 1.09607(19) 0.77600(19)
O2N O 0.40393(19) 1.22400(19) 0.8614(2)
O2T O 0.40393(19) 0.77600(19) 0.6386(2)
O3F O 0.27905(19) 1.07943(19) 0.85269(19)
O3J O 0.42057(19) 1.14731(19) 0.77905(19)
O3N O 0.35269(19) 1.22095(19) 0.92057(19)
O3O_2 O 0.64731(19) 0.27905(19) 0.92057(19)
O3S O 0.27905(19) 0.92057(19) 0.64731(19)
O4G O 0.5975(2) 0.4194(2) 0.9837(2)
O4N O 0.5163(2) 0.4025(2) 0.9194(2)
O5E O 0.48085(17) 0.8500(2) 0.6358(2)
O5G O 0.6500(2) 0.3642(2) 0.98085(17)
O5J O 0.3642(2) 0.98085(17) 0.6500(2)
O6E O 0.38131(14) 0.88131(14) 0.61869(14)
loop_
_geom_bond_atom_site_label_1
_geom_bond_atom_site_label_2
_geom_bond_site_symmetry_1
_geom_bond_site_symmetry_2
Zn1 O4 1_555 1_555
Zn2 O6 1_555 1_555
C1 O2 1_555 1_555
C2 H1 1_555 1_555
H2 C2 1_555 1_555
H3 C2 1_555 1_555
C3 H4 1_555 1_555
H5 C3 1_555 1_555
H6 C3 1_555 1_555
O1 C16 1_555 1_555
O2 Zn2E 1_555 1_555
O3 C1 1_555 1_555
O4 C4 1_555 1_555
C4 C9 1_555 1_555
C5 C1 1_555 1_555
C6 C5 1_555 1_555
H7 C6 1_555 1_555
C7 C6 1_555 1_555
C8 C7 1_555 1_555
H8 C8 1_555 1_555
C9 C8 1_555 1_555
C10 C5 1_555 1_555
H9 C10 1_555 1_555
O5 C4 1_555 1_555
C11 C7 1_555 1_555
C12 C11 1_555 1_555
C13 C2 1_555 1_555
C14 C3 1_555 1_555
C15 C14 1_555 1_555
C16 C11 1_555 1_555
O6 Zn1 1_555 1_555
C1I O2I 1_555 1_555
C2I H1I 1_555 1_555
H2I C2I 1_555 1_555
H3I C2I 1_555 1_555
C3I H4I 1_555 1_555
H5I C3I 1_555 1_555
H6I C3I 1_555 1_555
O1I C16I 1_555 1_555
O2I Zn2T 1_555 1_555
O3I C1I 1_555 1_555
O4I C4I 1_555 1_555
C4I C9I 1_555 1_555
C5I C1I 1_555 1_555
C6I C5I 1_555 1_555
H7I C6I 1_555 1_555
C7I C6I 1_555 1_555
C8I C7I 1_555 1_555
H8I C8I 1_555 1_555
C9I C8I 1_555 1_555
C10I C5I 1_555 1_555
H9I C10I 1_555 1_555
O5I C4I 1_555 1_555
C11I C7I 1_555 1_555
C12I C11I 1_555 1_555
C13I C2I 1_555 1_555
C14I C3I 1_555 1_555
C15I C15 1_555 1_555
C16I C11I 1_555 1_555
Zn1G O4I 1_555 1_555
Zn2I O6G 1_555 1_555
O6G Zn1G 1_555 1_555
Zn2O O5 1_555 1_555
C1O O2O 1_555 1_555
C2O H1O 1_555 1_555
H2O C2O 1_555 1_555
H3O C2O 1_555 1_555
C3O H4O 1_555 1_555
H5O C3O 1_555 1_555
H6O C3O 1_555 1_555
O1O C16O 1_555 1_555
O2O Zn2G_2 1_555 1_555
O3O C1O 1_555 1_555
O4O Zn1 1_555 1_555
C4O O4O 1_555 1_555
C5O C1O 1_555 1_555
C6O C5O 1_555 1_555
H7O C6O 1_555 1_555
C7O C6O 1_555 1_555
C8O C7O 1_555 1_555
H8O C8O 1_555 1_555
C9O C4O 1_555 1_555
C10O C5O 1_555 1_555
H9O C10O 1_555 1_555
O5O C4O 1_555 1_555
C11O C7O 1_555 1_555
C12O C11O 1_555 1_555
C13O C2O 1_555 1_555
C14O C3O 1_555 1_555
C15O C14O 1_555 1_555
C16O C11O 1_555 1_555
C1H O2H 1_555 1_555
C2H H1H 1_555 1_555
H2H C2H 1_555 1_555
H3H C2H 1_555 1_555
C3H H4H 1_555 1_555
H5H C3H 1_555 1_555
H6H C3H 1_555 1_555
O1H C16H 1_555 1_555
O2H Zn2A 1_555 1_555
O3H C1H 1_555 1_555
O4H C4H 1_555 1_555
C4H C9H 1_555 1_555
C5H C1H 1_555 1_555
C6H C5H 1_555 1_555
H7H C6H 1_555 1_555
C7H C6H 1_555 1_555
C8H C7H 1_555 1_555
H8H C8H 1_555 1_555
C9H C8H 1_555 1_555
C10H C5H 1_555 1_555
H9H C10H 1_555 1_555
O5H C4H 1_555 1_555
C11H C7H 1_555 1_555
C12H C11H 1_555 1_555
C13H C2H 1_555 1_555
C14H C3H 1_555 1_555
C15H C15O 1_555 1_555
C16H C11H 1_555 1_555
Zn2P O6 1_555 1_555
C1P O2P 1_555 1_555
C2P H1P 1_555 1_555
H2P C2P 1_555 1_555
H3P C2P 1_555 1_555
C3P H4P 1_555 1_555
H5P C3P 1_555 1_555
H6P C3P 1_555 1_555
O1P C16P 1_555 1_555
O2P Zn2K 1_555 1_555
O3P C1P 1_555 1_555
O4P Zn1 1_555 1_555
C4P O4P 1_555 1_555
C5P C1P 1_555 1_555
C6P C5P 1_555 1_555
H7P C6P 1_555 1_555
C7P C6P 1_555 1_555
C8P C7P 1_555 1_555
H8P C8P 1_555 1_555
C9P C4P 1_555 1_555
C10P C5P 1_555 1_555
H9P C10P 1_555 1_555
O5P Zn2 1_555 1_555
C11P C7P 1_555 1_555
C12P C11P 1_555 1_555
C13P C2P 1_555 1_555
C14P C3P 1_555 1_555
C15P C14P 1_555 1_555
C16P C11P 1_555 1_555
C1M O2M 1_555 1_555
C2M H1M 1_555 1_555
H2M C2M 1_555 1_555
H3M C2M 1_555 1_555
C3M H4M 1_555 1_555
H5M C3M 1_555 1_555
H6M C3M 1_555 1_555
O1M C16M 1_555 1_555
O2M Zn2U 1_555 1_555
O3M C1M 1_555 1_555
O4M C4M 1_555 1_555
C4M C9M 1_555 1_555
C5M C1M 1_555 1_555
C6M C5M 1_555 1_555
H7M C6M 1_555 1_555
C7M C6M 1_555 1_555
C8M C7M 1_555 1_555
H8M C8M 1_555 1_555
C9M C8M 1_555 1_555
C10M C5M 1_555 1_555
H9M C10M 1_555 1_555
O5M C4M 1_555 1_555
C11M C7M 1_555 1_555
C12M C11M 1_555 1_555
C13M C2M 1_555 1_555
C14M C3M 1_555 1_555
C15M C15P 1_555 1_555
C16M C11M 1_555 1_555
Zn2E O3S 1_555 1_555
Zn2M O3 1_555 1_555
Zn1E O4M 1_555 1_555
Zn1F O4H 1_555 1_555
Zn2B O3M 1_555 1_555
Zn2F O5H 1_555 1_555
Zn2G O6G 1_555 1_555
Zn2H O3P 1_555 1_555
Zn2I_2 O3O 1_555 1_555
Zn2J O5M 1_555 1_555
Zn2N O5I 1_555 1_555
Zn2R O3I 1_555 1_555
Zn2V O3H 1_555 1_555
O2A Zn2I 1_555 1_555
O2F Zn2 1_555 1_555
O2J Zn2O 1_555 1_555
O2N Zn2P 1_555 1_555
O2T Zn2M 1_555 1_555
O3F Zn2O 1_555 1_555
O3J Zn2P 1_555 1_555
O3N Zn2 1_555 1_555
O3O_2 Zn2I 1_555 1_555
O4G Zn1G 1_555 1_555
O4N Zn1G 1_555 1_555
O5E Zn2M 1_555 1_555
O5G Zn2I 1_555 1_555
O5J Zn2E 1_555 1_555
O6E Zn2E 1_555 1_555
C9 C10 1_555 1_555
C12 C13 1_555 1_555
C13 C14 1_555 1_555
C15 C16 1_555 1_555
O6 Zn2O 1_555 1_555
C9I C10I 1_555 1_555
C12I C13I 1_555 1_555
C13I C14I 1_555 1_555
C14I C15I 1_555 1_555
C15I C16I 1_555 1_555
O6G Zn2N 1_555 1_555
C8O C9O 1_555 1_555
C9O C10O 1_555 1_555
O5O Zn2P 1_555 1_555
C12O C13O 1_555 1_555
C13O C14O 1_555 1_555
C15O C16O 1_555 1_555
C9H C10H 1_555 1_555
C12H C13H 1_555 1_555
C13H C14H 1_555 1_555
C14H C15H 1_555 1_555
C15H C16H 1_555 1_555
C4P O5P 1_555 1_555
C8P C9P 1_555 1_555
C9P C10P 1_555 1_555
C12P C13P 1_555 1_555
C13P C14P 1_555 1_555
C15P C16P 1_555 1_555
C9M C10M 1_555 1_555
C12M C13M 1_555 1_555
C13M C14M 1_555 1_555
C14M C15M 1_555 1_555
C15M C16M 1_555 1_555
Zn2M O6E 1_555 1_555

#END
