
#######################################################################
#
#                 Cambridge Crystallographic Data Centre
#                                CCDC 
#
#######################################################################
#
# If this CIF has been generated from an entry in the Cambridge 
# Structural Database, then it will include bibliographic, chemical, 
# crystal, experimental, refinement or atomic coordinate data resulting 
# from the CCDC's data processing and validation procedures.
#
#######################################################################

data_NAYHAY
_chemical_formula_moiety         '(C24 H44 Cu6 N18 O28 S5)n'
_symmetry_cell_setting           orthorhombic
_symmetry_space_group_name_H-M   'P n n a'
_symmetry_Int_Tables_number      52
_space_group_name_Hall           '-P 2a 2bc'
loop_
_symmetry_equiv_pos_site_id
_symmetry_equiv_pos_as_xyz
1 x,y,z
2 1/2-x,-y,z
3 1/2-x,1/2+y,1/2-z
4 x,1/2-y,1/2-z
5 -x,-y,-z
6 1/2+x,y,-z
7 1/2+x,1/2-y,1/2+z
8 -x,1/2+y,1/2+z
_cell_length_a                   24.569(4)
_cell_length_b                   14.682(2)
_cell_length_c                   22.399(3)
_cell_angle_alpha                90
_cell_angle_beta                 90
_cell_angle_gamma                90
_cell_volume                     8079.81
loop_
_atom_site_label
_atom_site_type_symbol
_atom_site_fract_x
_atom_site_fract_y
_atom_site_fract_z
S1 S 0.3776(6) 0.1821(7) 0.1511(4)
O1 O 0.3835(7) 0.1968(11) 0.0769(8)
O2 O 0.4026(8) 0.2595(8) 0.1936(8)
O3 O 0.3131(9) 0.1655(16) 0.1630(10)
O4 O 0.3986(9) 0.0907(14) 0.1648(11)
O5 O 0.3131(6) 0.2433(7) 0.0070(5)
Cu1 Cu 0.40876(4) 0.40762(8) 0.14797(5)
Cu2 Cu 0.47794(4) 0.39480(7) 0.01801(4)
Cu3 Cu 0.34072(4) 0.40700(8) 0.01680(5)
S2 S 0.40910(8) 0.59314(15) 0.05561(11)
N1 N 0.4378(3) 0.3881(4) -0.0576(3)
N2 N 0.3007(3) 0.3993(4) 0.0934(3)
N3 N 0.5174(3) 0.3968(5) 0.0950(3)
N4 N 0.3826(3) 0.3904(5) -0.0592(3)
N5 N 0.3275(3) 0.3986(5) 0.1468(3)
N6 N 0.2426(3) 0.3749(5) 0.1646(3)
N7 N 0.4895(3) 0.3974(4) 0.1479(3)
N8 N 0.5755(3) 0.3774(6) 0.1678(4)
N9 N 0.4091(3) 0.3765(6) -0.1498(4)
C1 C 0.2485(3) 0.3856(6) 0.1063(4)
H1 H 0.2203 0.3838 0.0785
C2 C 0.5251(3) 0.3857(6) 0.1904(4)
H2 H 0.5167 0.3833 0.2308
C3 C 0.4526(4) 0.3838(6) -0.1133(4)
H3 H 0.4886 0.3854 -0.1263
C4 C 0.2938(3) 0.3848(7) 0.1885(4)
H4 H 0.3024 0.3818 0.2289
C5 C 0.3662(4) 0.3854(6) -0.1133(4)
H5 H 0.3300 0.3876 -0.1255
C6 C 0.5702(4) 0.3846(5) 0.1084(4)
H6 H 0.5985 0.3815 0.0809
O6 O 0.4571(2) 0.5578(4) 0.0235(2)
O7 O 0.3603(2) 0.5565(4) 0.0263(3)
O8 O 0.4127(2) 0.5603(5) 0.1164(3)
O9 O 0.4094(2) 0.6911(4) 0.0522(3)
C7 C 0.6262(3) 0.3585(7) 0.2018(4)
H7 H 0.6284 0.3984 0.2363
H8 H 0.6578 0.3694 0.1768
C8 C 0.6254(3) 0.2627(7) 0.2214(4)
H9 H 0.6248 0.2175 0.1923
C9 C 0.4103(4) 0.3681(9) -0.2156(4)
H10 H 0.3779 0.3960 -0.2324
H11 H 0.4418 0.3998 -0.2312
O10 O 0.40870(18) 0.3695(4) 0.0620(2)
C10 C 0.4125(6) 0.2733(8) -0.2326(5)
H12 H 0.4150 0.2399 -0.1975
S3 S 0.2500 0.5000 -0.06351(15)
O11 O 0.2727(2) 0.4288(5) -0.0247(3)
O12 O 0.2065(3) 0.4585(6) -0.0993(3)
O13 O 0.4986(6) 0.2360(7) 0.0102(5)
O14 O 0.4077(2) 0.4586(5) 0.2291(3)
C11 C 0.1925(3) 0.2610(6) 0.2220(4)
H13 H 0.1931 0.2140 0.1941
C12 C 0.1916(3) 0.3557(7) 0.1991(4)
H14 H 0.1886 0.3980 0.2322
H15 H 0.1602 0.3642 0.1734
S1C S 0.3776(6) 0.3179(7) 0.3489(4)
O1C O 0.3835(7) 0.3032(11) 0.4231(8)
O2C O 0.4026(8) 0.2405(8) 0.3064(8)
O3C O 0.3131(9) 0.3345(16) 0.3370(10)
O4C O 0.3986(9) 0.4093(14) 0.3352(11)
O5C O 0.3131(6) 0.2567(7) 0.4930(5)
Cu1C Cu 0.40876(4) 0.09238(8) 0.35203(5)
Cu1D Cu 0.59124(4) 0.59238(8) -0.14797(5)
Cu2C Cu 0.47794(4) 0.10520(7) 0.48199(4)
Cu2D Cu 0.52206(4) 0.60520(7) -0.01801(4)
Cu2C_2 Cu 0.47794(4) 0.10520(7) -0.51801(4)
Cu3C Cu 0.34072(4) 0.09300(8) 0.48320(5)
Cu3C_2 Cu 0.34072(4) 0.09300(8) -0.51680(5)
Cu3A Cu 0.15928(4) 0.59300(8) 0.01680(5)
Cu3D Cu 0.65928(4) 0.59300(8) -0.01680(5)
S2D S 0.59090(8) 0.40686(15) -0.05561(11)
N1C N 0.4378(3) 0.1119(4) -0.4424(3)
N1C_2 N 0.4378(3) 0.1119(4) 0.5576(3)
N2C N 0.3007(3) 0.1007(4) 0.4066(3)
N3C N 0.5174(3) 0.1032(5) 0.4050(3)
N4C N 0.3826(3) 0.1096(5) -0.4408(3)
N4C_2 N 0.3826(3) 0.1096(5) 0.5592(3)
N5C N 0.3275(3) 0.1014(5) 0.3532(3)
N6C N 0.2426(3) 0.1251(5) 0.3354(3)
N7C N 0.4895(3) 0.1026(4) 0.3521(3)
N8C N 0.5755(3) 0.1226(6) 0.3322(4)
N9C N 0.4091(3) 0.1235(6) -0.3502(4)
C1C C 0.2485(3) 0.1144(6) 0.3937(4)
H1C H 0.2203 0.1162 0.4215
C2C C 0.5251(3) 0.1143(6) 0.3096(4)
H2C H 0.5167 0.1167 0.2692
C3C C 0.4526(4) 0.1162(6) -0.3867(4)
H3C H 0.4886 0.1146 -0.3737
C4C C 0.2938(3) 0.1152(7) 0.3115(4)
H4C H 0.3024 0.1182 0.2711
C5C C 0.3662(4) 0.1146(6) -0.3867(4)
H5C H 0.3300 0.1124 -0.3745
C6C C 0.5702(4) 0.1154(5) 0.3916(4)
H6C H 0.5985 0.1185 0.4191
O6D O 0.5429(2) 0.4422(4) -0.0235(2)
O6C O 0.4571(2) -0.0578(4) 0.4765(2)
O6G O 0.5429(2) 0.0578(4) 0.5235(2)
O7D O 0.6397(2) 0.4435(4) -0.0263(3)
O7C O 0.3603(2) -0.0565(4) 0.4737(3)
O8D O 0.5873(2) 0.4397(5) -0.1164(3)
O8C O 0.4127(2) -0.0603(5) 0.3836(3)
O9D O 0.5906(2) 0.3089(4) -0.0522(3)
C7C C 0.6262(3) 0.1415(7) 0.2982(4)
H7C H 0.6284 0.1016 0.2637
H8C H 0.6578 0.1306 0.3232
C8C C 0.6254(3) 0.2373(7) 0.2786(4)
H9C H 0.6248 0.2825 0.3077
C9C C 0.4103(4) 0.1319(9) -0.2844(4)
H10C H 0.3779 0.1040 -0.2676
H11C H 0.4418 0.1002 -0.2688
O10C O 0.40870(18) 0.1305(4) 0.4380(2)
C10C C 0.4125(6) 0.2267(8) -0.2674(5)
H12C H 0.4150 0.2601 -0.3025
O11A O 0.2273(2) 0.5712(5) -0.0247(3)
O11C O 0.2727(2) 0.0712(5) 0.5247(3)
O12A O 0.2935(3) 0.5415(6) -0.0993(3)
O13C O 0.4986(6) 0.2640(7) 0.4898(5)
O14C O 0.4077(2) 0.0414(5) 0.2709(3)
C11C C 0.1925(3) 0.2390(6) 0.2780(4)
H13C H 0.1931 0.2860 0.3059
C12C C 0.1916(3) 0.1443(7) 0.3009(4)
H14C H 0.1886 0.1020 0.2678
H15C H 0.1602 0.1358 0.3266
loop_
_geom_bond_atom_site_label_1
_geom_bond_atom_site_label_2
_geom_bond_site_symmetry_1
_geom_bond_site_symmetry_2
S1 O1 1_555 1_555
O2 S1 1_555 1_555
O3 S1 1_555 1_555
O4 S1 1_555 1_555
O5 Cu3 1_555 1_555
Cu1 O2 1_555 1_555
Cu2 N1 1_555 1_555
Cu3 N2 1_555 1_555
S2 O6 1_555 1_555
N1 N4 1_555 1_555
N2 N5 1_555 1_555
N3 Cu2 1_555 1_555
N4 Cu3 1_555 1_555
N5 Cu1 1_555 1_555
N6 C1 1_555 1_555
N7 Cu1 1_555 1_555
N8 C2 1_555 1_555
N9 C3 1_555 1_555
C1 N2 1_555 1_555
H1 C1 1_555 1_555
C2 N7 1_555 1_555
H2 C2 1_555 1_555
C3 N1 1_555 1_555
H3 C3 1_555 1_555
C4 N5 1_555 1_555
H4 C4 1_555 1_555
C5 N4 1_555 1_555
H5 C5 1_555 1_555
C6 N3 1_555 1_555
H6 C6 1_555 1_555
O6 Cu2 1_555 1_555
O7 Cu3 1_555 1_555
O8 Cu1 1_555 1_555
O9 S2 1_555 1_555
C7 N8 1_555 1_555
H7 C7 1_555 1_555
H8 C7 1_555 1_555
C8 C7 1_555 1_555
H9 C8 1_555 1_555
C9 N9 1_555 1_555
H10 C9 1_555 1_555
H11 C9 1_555 1_555
O10 Cu1 1_555 1_555
C10 C9 1_555 1_555
H12 C10 1_555 1_555
S3 O11 1_555 1_555
O11 Cu3 1_555 1_555
O12 S3 1_555 1_555
O13 Cu2 1_555 1_555
O14 Cu1 1_555 1_555
C11 H13 1_555 1_555
C12 N6 1_555 1_555
H14 C12 1_555 1_555
H15 C12 1_555 1_555
S1C O1C 1_555 1_555
O2C S1C 1_555 1_555
O3C S1C 1_555 1_555
O4C S1C 1_555 1_555
O5C Cu3C 1_555 1_555
Cu1C O2C 1_555 1_555
Cu1D O8D 1_555 1_555
Cu2C N1C_2 1_555 1_555
Cu2D O6 1_555 1_555
Cu2C_2 N1C 1_555 1_555
Cu3C N2C 1_555 1_555
Cu3C_2 N4C 1_555 1_555
Cu3A O11A 1_555 1_555
Cu3D O7D 1_555 1_555
S2D O6D 1_555 1_555
N1C N4C 1_555 1_555
N1C_2 N4C_2 1_555 1_555
N2C N5C 1_555 1_555
N3C Cu2C 1_555 1_555
N4C C5C 1_555 1_555
N4C_2 Cu3C 1_555 1_555
N5C Cu1C 1_555 1_555
N6C C1C 1_555 1_555
N7C Cu1C 1_555 1_555
N8C C2C 1_555 1_555
N9C C3C 1_555 1_555
C1C N2C 1_555 1_555
H1C C1C 1_555 1_555
C2C N7C 1_555 1_555
H2C C2C 1_555 1_555
C3C N1C 1_555 1_555
H3C C3C 1_555 1_555
C4C N5C 1_555 1_555
H4C C4C 1_555 1_555
C5C N9C 1_555 1_555
H5C C5C 1_555 1_555
C6C N3C 1_555 1_555
H6C C6C 1_555 1_555
O6D Cu2 1_555 1_555
O6C Cu2C 1_555 1_555
O6G Cu2C 1_555 1_555
O7D S2D 1_555 1_555
O7C Cu3C 1_555 1_555
O8D S2D 1_555 1_555
O8C Cu1C 1_555 1_555
O9D S2D 1_555 1_555
C7C N8C 1_555 1_555
H7C C7C 1_555 1_555
H8C C7C 1_555 1_555
C8C C8 1_555 1_555
H9C C8C 1_555 1_555
C9C N9C 1_555 1_555
H10C C9C 1_555 1_555
H11C C9C 1_555 1_555
O10C Cu1C 1_555 1_555
C10C C10 1_555 1_555
H12C C10C 1_555 1_555
O11A S3 1_555 1_555
O11C Cu3C 1_555 1_555
O12A S3 1_555 1_555
O13C Cu2C 1_555 1_555
O14C Cu1C 1_555 1_555
C11C C11 1_555 1_555
H13C C11C 1_555 1_555
C12C N6C 1_555 1_555
H14C C12C 1_555 1_555
H15C C12C 1_555 1_555
Cu2 O10 1_555 1_555
Cu3 O10 1_555 1_555
S2 O7 1_555 1_555
S2 O8 1_555 1_555
N3 N7 1_555 1_555
N6 C4 1_555 1_555
N8 C6 1_555 1_555
N9 C5 1_555 1_555
C11 C12 1_555 1_555
Cu2C O10C 1_555 1_555
Cu2D O6D 1_555 1_555
Cu3C O10C 1_555 1_555
N3C N7C 1_555 1_555
N6C C4C 1_555 1_555
N8C C6C 1_555 1_555
C7C C8C 1_555 1_555
C9C C10C 1_555 1_555
C11C C12C 1_555 1_555

#END
