
#######################################################################
#
#                 Cambridge Crystallographic Data Centre
#                                CCDC 
#
#######################################################################
#
# If this CIF has been generated from an entry in the Cambridge 
# Structural Database, then it will include bibliographic, chemical, 
# crystal, experimental, refinement or atomic coordinate data resulting 
# from the CCDC's data processing and validation procedures.
#
#######################################################################

data_POWYEH
_chemical_formula_moiety         '(C28 H22 O15 V2)n'
_symmetry_cell_setting           orthorhombic
_symmetry_space_group_name_H-M   'P b c m'
_symmetry_Int_Tables_number      57
_space_group_name_Hall           '-P 2c 2b'
loop_
_symmetry_equiv_pos_site_id
_symmetry_equiv_pos_as_xyz
1 x,y,z
2 -x,-y,1/2+z
3 -x,1/2+y,1/2-z
4 x,1/2-y,-z
5 -x,-y,-z
6 x,y,1/2-z
7 x,1/2-y,1/2+z
8 -x,1/2+y,z
_cell_length_a                   12.6011(13)
_cell_length_b                   17.2874(18)
_cell_length_c                   13.7364(14)
_cell_angle_alpha                90
_cell_angle_beta                 90
_cell_angle_gamma                90
_cell_volume                     2992.34
loop_
_atom_site_label
_atom_site_type_symbol
_atom_site_fract_x
_atom_site_fract_y
_atom_site_fract_z
O1 O 0.3209(2) 0.24658(14) 0.2500
H1 H 0.386(2) 0.232(4) 0.2500
O2 O 0.1781(2) 0.2500 0.0000
H2 H 0.1116(16) 0.2500 0.0000
O3 O 0.15957(17) 0.33933(11) 0.16879(14)
O4 O 0.34339(17) 0.16266(11) 0.08341(14)
O5 O -0.14079(17) 0.67311(11) 0.16876(14)
O6 O 0.35626(17) 0.17137(11) -0.07822(14)
V1 V 0.24976(4) 0.25061(2) 0.12483(3)
C1 C -0.1137(3) 0.6467(2) 0.2500
C2 C -0.0426(4) 0.5769(2) 0.2500
C3 C -0.0122(3) 0.54380(19) 0.1628(2)
H3 H -0.0319 0.5667 0.1043
C4 C 0.3747(2) 0.13927(16) 0.00205(17)
C5 C 0.4405(3) 0.06725(17) 0.00069(18)
C6 C 0.1365(3) 0.3679(2) 0.2500
C7 C 0.0760(4) 0.4422(2) 0.2500
C8 C 0.0475(3) 0.47657(18) 0.1624(2)
H4 H 0.0685 0.4545 0.1037
C9 C 0.4717(3) 0.03500(18) -0.0865(2)
H5 H 0.4524 0.0584 -0.1448
C10 C 0.4685(3) 0.03184(18) 0.0875(2)
H6 H 0.4469 0.0531 0.1464
O3E O 0.15957(17) 0.33933(11) 0.33121(14)
O5E O -0.14079(17) 0.67311(11) 0.33124(14)
C3E C -0.0122(3) 0.54380(19) 0.3372(2)
H3E H -0.0319 0.5667 0.3957
C8E C 0.0475(3) 0.47657(18) 0.3376(2)
H4E H 0.0685 0.4545 0.3963
O4D O 0.65661(17) -0.16266(11) -0.08341(14)
O6D O 0.64374(17) -0.17137(11) 0.07822(14)
C4D C 0.6253(2) -0.13927(16) -0.00205(17)
C5D C 0.5595(3) -0.06725(17) -0.00069(18)
C9D C 0.5283(3) -0.03500(18) 0.0865(2)
H5D H 0.5476 -0.0584 0.1448
C10D C 0.5315(3) -0.03184(18) -0.0875(2)
H6D H 0.5531 -0.0531 -0.1464
V1C V 0.24976(4) 0.24939(2) -0.12483(3)
O1C O 0.3209(2) 0.25342(14) -0.2500
O3C O 0.15957(17) 0.16067(11) -0.16879(14)
O4C O 0.34339(17) 0.33734(11) -0.08341(14)
O5D O 0.14079(17) 0.32689(11) -0.16876(14)
O5G O 0.14079(17) 0.17311(11) 0.16876(14)
O6C O 0.35626(17) 0.32863(11) 0.07822(14)
V1B V -0.24976(4) 0.75061(2) 0.37517(3)
V1D V 0.75024(4) -0.25061(2) -0.12483(3)
V1E V 0.24976(4) 0.25061(2) 0.37517(3)
V1G V -0.24976(4) 0.75061(2) 0.12483(3)
V1G_2 V 0.75024(4) -0.24939(2) 0.12483(3)
O7 O 0.6461(6) 0.1820(5) 0.0504(5)
H7 H 0.700(3) 0.174(7) 0.0138(14)
C11 C 0.7002(6) 0.1244(4) 0.1994(6)
H8 H 0.7372 0.0866 0.1653
C12 C 0.6450(6) 0.1809(4) 0.1500(4)
C13 C 0.5912(5) 0.2376(4) 0.2016(6)
H9 H 0.5547 0.2760 0.1682
O7E O 0.6461(6) 0.1820(5) 0.4496(5)
H7E H 0.700(3) 0.174(7) 0.4862(14)
C11E C 0.7002(6) 0.1244(4) 0.3006(6)
H8E H 0.7372 0.0866 0.3347
C12E C 0.6450(6) 0.1809(4) 0.3500(4)
C13E C 0.5912(5) 0.2376(4) 0.2984(6)
H9E H 0.5547 0.2760 0.3318
O8 O 0.9383(16) 0.2573(18) -0.0401(12)
O9 O 0.8057(19) 0.3875(14) 0.0517(7)
C14 C 0.8499(16) 0.3248(10) 0.2020(4)
H10 H 0.8844 0.2846 0.1701
C15 C 0.7988(15) 0.3843(9) 0.1429(8)
C16 C 0.749(2) 0.4439(12) 0.2019(4)
H11 H 0.7154 0.4845 0.1701
O9E O 0.8057(19) 0.3875(14) 0.4483(7)
C14E C 0.8499(16) 0.3248(10) 0.2980(4)
H10E H 0.8844 0.2846 0.3299
C15E C 0.7988(15) 0.3843(9) 0.3571(8)
C16E C 0.749(2) 0.4439(12) 0.2981(4)
H11E H 0.7154 0.4845 0.3299
loop_
_geom_bond_atom_site_label_1
_geom_bond_atom_site_label_2
_geom_bond_site_symmetry_1
_geom_bond_site_symmetry_2
O1 H1 1_555 1_555
O2 H2 1_555 1_555
O3 V1 1_555 1_555
O4 V1 1_555 1_555
O5 C1 1_555 1_555
O6 C4 1_555 1_555
V1 O1 1_555 1_555
C1 C2 1_555 1_555
C2 C3 1_555 1_555
C3 H3 1_555 1_555
C4 O4 1_555 1_555
C5 C4 1_555 1_555
C6 O3 1_555 1_555
C7 C6 1_555 1_555
C8 C3 1_555 1_555
H4 C8 1_555 1_555
C9 C5 1_555 1_555
H5 C9 1_555 1_555
C10 C5 1_555 1_555
H6 C10 1_555 1_555
O7 H7 1_555 1_555
C11 H8 1_555 1_555
C12 O7 1_555 1_555
C13 C12 1_555 1_555
H9 C13 1_555 1_555
O9 C15 1_555 1_555
C14 H10 1_555 1_555
C15 C14 1_555 1_555
C16 C15 1_555 1_555
H11 C16 1_555 1_555
O3E C6 1_555 1_555
O5E C1 1_555 1_555
C3E C2 1_555 1_555
H3E C3E 1_555 1_555
C8E C7 1_555 1_555
H4E C8E 1_555 1_555
O4D C4D 1_555 1_555
O6D C4D 1_555 1_555
C4D C5D 1_555 1_555
C5D C9D 1_555 1_555
C9D C10 1_555 1_555
H5D C9D 1_555 1_555
C10D C9 1_555 1_555
H6D C10D 1_555 1_555
V1C O2 1_555 1_555
O1C V1C 1_555 1_555
O3C V1C 1_555 1_555
O4C V1C 1_555 1_555
O5D V1C 1_555 1_555
O5G V1 1_555 1_555
O6C V1 1_555 1_555
V1B O5E 1_555 1_555
V1D O4D 1_555 1_555
V1E O1 1_555 1_555
V1G O5 1_555 1_555
V1G_2 O6D 1_555 1_555
O7E H7E 1_555 1_555
C11E C11 1_555 1_555
H8E C11E 1_555 1_555
C12E O7E 1_555 1_555
C13E C13 1_555 1_555
H9E C13E 1_555 1_555
O9E C15E 1_555 1_555
C14E C14 1_555 1_555
H10E C14E 1_555 1_555
C15E C14E 1_555 1_555
C16E C16 1_555 1_555
H11E C16E 1_555 1_555
O2 V1 1_555 1_555
O6 V1C 1_555 1_555
C7 C8 1_555 1_555
C11 C12 1_555 1_555
O3E V1E 1_555 1_555
C3E C8E 1_555 1_555
C5D C10D 1_555 1_555
C11E C12E 1_555 1_555
C12E C13E 1_555 1_555
C15E C16E 1_555 1_555

#END
