
#######################################################################
#
#                 Cambridge Crystallographic Data Centre
#                                CCDC 
#
#######################################################################
#
# If this CIF has been generated from an entry in the Cambridge 
# Structural Database, then it will include bibliographic, chemical, 
# crystal, experimental, refinement or atomic coordinate data resulting 
# from the CCDC's data processing and validation procedures.
#
#######################################################################

data_REFTUT
_chemical_formula_moiety         '(C27 H28 Ca1 O17 Zn2)n'
_symmetry_cell_setting           orthorhombic
_symmetry_space_group_name_H-M   'P n m a'
_symmetry_Int_Tables_number      62
_space_group_name_Hall           '-P 2ac 2n'
loop_
_symmetry_equiv_pos_site_id
_symmetry_equiv_pos_as_xyz
1 x,y,z
2 1/2-x,-y,1/2+z
3 1/2+x,1/2-y,1/2-z
4 -x,1/2+y,-z
5 -x,-y,-z
6 1/2+x,y,1/2-z
7 1/2-x,1/2+y,1/2+z
8 x,1/2-y,z
_cell_length_a                   7.35853(19)
_cell_length_b                   23.5965(5)
_cell_length_c                   18.7029(4)
_cell_angle_alpha                90
_cell_angle_beta                 90
_cell_angle_gamma                90
_cell_volume                     3247.49
loop_
_atom_site_label
_atom_site_type_symbol
_atom_site_fract_x
_atom_site_fract_y
_atom_site_fract_z
Ca1 Ca 0.5000 -0.0000 0.5000
Zn1 Zn 0.14200(6) 0.086723(17) 0.45085(2)
O1 O 0.2552(4) 0.00731(12) 0.57487(14)
O2 O 0.0739(5) 0.08057(12) 0.55339(14)
O3 O 0.2268(4) -0.01777(10) 0.91150(13)
O4 O 0.2860(5) -0.07176(12) 0.81898(16)
O5 O 0.5449(4) 0.09828(11) 0.49968(15)
O6 O 0.3135(4) 0.14991(12) 0.45898(17)
O7 O -0.0911(5) 0.11386(17) 0.4102(2)
H1 H -0.1056 0.0785 0.4011
H2 H -0.1775 0.1240 0.4377
C1 C 0.1781(5) 0.01127(15) 0.72086(19)
H8 H 0.2262 -0.0224 0.7032
C2 C 0.1207(5) 0.05293(15) 0.67413(19)
C3 C 0.0465(5) 0.10308(16) 0.7008(2)
H9 H 0.0026 0.1302 0.6691
C4 C 0.1517(5) 0.04576(15) 0.5952(2)
C5 C 0.2283(5) -0.02649(16) 0.8430(2)
C6 C 0.1640(5) 0.01958(15) 0.79448(19)
C7 C 0.0980(5) 0.07098(15) 0.82039(19)
H10 H 0.0943 0.0773 0.8694
C8 C 0.0374(5) 0.11301(15) 0.7739(2)
C9 C -0.0305(7) 0.16908(17) 0.8022(2)
H11 H 0.0710 0.1935 0.8116
H12 H -0.1084 0.1864 0.7674
H13 H -0.0972 0.1629 0.8456
C10 C 0.4707(5) 0.14467(15) 0.48615(19)
C11 C 0.4833(8) 0.2500 0.4871(3)
H14 H 0.3691 0.2500 0.4657
C12 C 0.5674(5) 0.19902(14) 0.50276(19)
C13 C 0.7393(5) 0.19930(15) 0.5343(2)
H15 H 0.7957 0.1650 0.5450
C14 C 0.8283(8) 0.2500 0.5503(3)
C15 C 1.0154(9) 0.2500 0.5829(4)
H16 H 1.0927 0.2248 0.5565
Ca1A Ca 0.0000 -0.0000 1.0000
Ca1C Ca 0.5000 0.5000 0.5000
Ca1A_2 Ca 1.0000 0.0000 0.0000
Zn1D Zn 0.85800(6) -0.086723(17) 0.54915(2)
Zn1A Zn 0.35800(6) -0.086723(17) 0.95085(2)
Zn1G Zn 0.14200(6) 0.413277(17) 0.45085(2)
Zn1E Zn 0.64200(6) 0.086723(17) 0.04915(2)
O1D O 0.7448(4) -0.00731(12) 0.42513(14)
O2D O 0.9261(5) -0.08057(12) 0.44661(14)
O3D O 0.7732(4) 0.01777(10) 0.08850(13)
O3A O 0.2732(4) 0.01777(10) 0.41150(13)
O3E O 0.7268(4) -0.01777(10) 0.58850(13)
O4D O 0.7140(5) 0.07176(12) 0.18102(16)
O5G O 0.5449(4) 0.40172(11) 0.49968(15)
O5D O 0.4551(4) -0.09828(11) 0.50032(15)
O6G O 0.3135(4) 0.35009(12) 0.45898(17)
O6D O 0.6865(4) -0.14991(12) 0.54102(17)
O7D O 1.0911(5) -0.11386(17) 0.5898(2)
H1D H 1.1056 -0.0785 0.5989
H2D H 1.1775 -0.1240 0.5623
C1D C 0.8219(5) -0.01127(15) 0.27914(19)
H8D H 0.7738 0.0224 0.2968
C2D C 0.8793(5) -0.05293(15) 0.32587(19)
C3D C 0.9535(5) -0.10308(16) 0.2992(2)
H9D H 0.9974 -0.1302 0.3309
C4D C 0.8483(5) -0.04576(15) 0.4048(2)
C5D C 0.7717(5) 0.02649(16) 0.1570(2)
C6D C 0.8360(5) -0.01958(15) 0.20552(19)
C7D C 0.9020(5) -0.07098(15) 0.17961(19)
H10D H 0.9057 -0.0773 0.1306
C8D C 0.9626(5) -0.11301(15) 0.2261(2)
C9D C 1.0305(7) -0.16908(17) 0.1978(2)
H11D H 0.9290 -0.1935 0.1884
H12D H 1.1084 -0.1864 0.2326
H13D H 1.0972 -0.1629 0.1544
C10G C 0.4707(5) 0.35533(15) 0.48615(19)
C12G C 0.5674(5) 0.30098(14) 0.50276(19)
C13G C 0.7393(5) 0.30070(15) 0.5343(2)
H15G H 0.7957 0.3350 0.5450
H16G H 1.0927 0.2752 0.5565
O8 O 0.991(2) 0.2500 0.3770(8)
H3 H 0.9470 0.2796 0.3968
H3G H 0.9470 0.2204 0.3968
O9 O 0.584(3) 0.3643(7) 0.3033(9)
H4 H 0.4823 0.3803 0.3125
H5 H 0.6313 0.3811 0.2676
O10 O 0.663(5) 0.2500 0.3141(17)
H6 H 0.5996 0.2797 0.3056
H6G H 0.5996 0.2203 0.3056
loop_
_geom_bond_atom_site_label_1
_geom_bond_atom_site_label_2
_geom_bond_site_symmetry_1
_geom_bond_site_symmetry_2
Ca1 O1 1_555 1_555
Zn1 O2 1_555 1_555
O1 C4 1_555 1_555
O2 C4 1_555 1_555
O3 C5 1_555 1_555
O4 C5 1_555 1_555
O5 Ca1 1_555 1_555
O6 Zn1 1_555 1_555
O7 Zn1 1_555 1_555
H1 O7 1_555 1_555
H2 O7 1_555 1_555
O8 H3 1_555 1_555
O9 H4 1_555 1_555
H5 O9 1_555 1_555
O10 H6 1_555 1_555
C1 H8 1_555 1_555
C2 C1 1_555 1_555
C3 C2 1_555 1_555
H9 C3 1_555 1_555
C4 C2 1_555 1_555
C5 C6 1_555 1_555
C6 C1 1_555 1_555
C7 C6 1_555 1_555
H10 C7 1_555 1_555
C8 C3 1_555 1_555
C9 C8 1_555 1_555
H11 C9 1_555 1_555
H12 C9 1_555 1_555
H13 C9 1_555 1_555
C10 O5 1_555 1_555
C11 H14 1_555 1_555
C12 C10 1_555 1_555
C13 C12 1_555 1_555
H15 C13 1_555 1_555
C14 C13 1_555 1_555
C15 C14 1_555 1_555
H16 C15 1_555 1_555
Ca1A O3 1_555 1_555
Ca1C O5G 1_555 1_555
Ca1A_2 O3D 1_555 1_555
Zn1D O2D 1_555 1_555
Zn1A O3 1_555 1_555
Zn1G O6G 1_555 1_555
Zn1E O3D 1_555 1_555
O1D Ca1 1_555 1_555
O2D C4D 1_555 1_555
O3D C5D 1_555 1_555
O3A Ca1 1_555 1_555
O3E Ca1 1_555 1_555
O4D C5D 1_555 1_555
O5G C10G 1_555 1_555
O5D Ca1 1_555 1_555
O6G C10G 1_555 1_555
O6D Zn1D 1_555 1_555
O7D Zn1D 1_555 1_555
H1D O7D 1_555 1_555
H2D O7D 1_555 1_555
H3G O8 1_555 1_555
H6G O10 1_555 1_555
C1D H8D 1_555 1_555
C2D C1D 1_555 1_555
C3D C2D 1_555 1_555
H9D C3D 1_555 1_555
C4D O1D 1_555 1_555
C5D C6D 1_555 1_555
C6D C1D 1_555 1_555
C7D C6D 1_555 1_555
H10D C7D 1_555 1_555
C8D C3D 1_555 1_555
C9D C8D 1_555 1_555
H11D C9D 1_555 1_555
H12D C9D 1_555 1_555
H13D C9D 1_555 1_555
C10G C12G 1_555 1_555
C12G C11 1_555 1_555
C13G C14 1_555 1_555
H15G C13G 1_555 1_555
H16G C15 1_555 1_555
Zn1 O3A 1_555 1_555
O6 C10 1_555 1_555
C7 C8 1_555 1_555
C11 C12 1_555 1_555
Zn1D O3E 1_555 1_555
C2D C4D 1_555 1_555
C7D C8D 1_555 1_555
C12G C13G 1_555 1_555

#END
