
#######################################################################
#
#                 Cambridge Crystallographic Data Centre
#                                CCDC 
#
#######################################################################
#
# If this CIF has been generated from an entry in the Cambridge 
# Structural Database, then it will include bibliographic, chemical, 
# crystal, experimental, refinement or atomic coordinate data resulting 
# from the CCDC's data processing and validation procedures.
#
#######################################################################

data_FEYZUF01
_chemical_formula_moiety         '(C28 H36 Eu2 N2 O14)n'
_symmetry_cell_setting           orthorhombic
_symmetry_space_group_name_H-M   'P b c n'
_symmetry_Int_Tables_number      60
_space_group_name_Hall           '-P 2n 2ab'
loop_
_symmetry_equiv_pos_site_id
_symmetry_equiv_pos_as_xyz
1 x,y,z
2 1/2-x,1/2-y,1/2+z
3 -x,y,1/2-z
4 1/2+x,1/2-y,-z
5 -x,-y,-z
6 1/2+x,1/2+y,1/2-z
7 x,-y,1/2+z
8 1/2-x,1/2+y,z
_cell_length_a                   21.925(2)
_cell_length_b                   7.6493(7)
_cell_length_c                   19.6691(15)
_cell_angle_alpha                90
_cell_angle_beta                 90
_cell_angle_gamma                90
_cell_volume                     3298.72
loop_
_atom_site_label
_atom_site_type_symbol
_atom_site_fract_x
_atom_site_fract_y
_atom_site_fract_z
Eu1 Eu 0.280586(18) 0.42492(5) 0.053545(17)
O1 O 0.3192(3) 0.3399(7) -0.0610(3)
O2 O 0.1696(2) 0.4471(7) 0.0548(3)
O3 O 0.2484(3) 0.1692(7) -0.0188(2)
O4 O 0.2608(2) 0.3052(6) -0.3794(2)
O5 O 0.3173(2) 0.5011(7) -0.3282(2)
O6 O 0.3688(3) 0.6049(8) 0.0361(3)
O7 O 0.1406(2) 0.7242(7) 0.0719(3)
C4 C 0.1296(3) 0.5626(11) 0.0655(3)
C7 C 0.0644(3) 0.5064(9) 0.0683(4)
H5 H 0.0429 0.5762 0.1018
H6 H 0.0623 0.3851 0.0825
C8 C 0.0334(3) 0.5264(11) -0.0002(4)
H7 H 0.0365 0.6473 -0.0146
H8 H 0.0548 0.4554 -0.0334
C9 C 0.2969(4) 0.3511(11) -0.3330(4)
C10 C 0.338(2) 0.229(5) -0.2901(14)
H9 H 0.3775 0.2262 -0.3117
H10 H 0.3208 0.1120 -0.2940
C12 C 0.3476(12) 0.263(2) -0.2176(8)
H13 H 0.3849 0.3300 -0.2138
H14 H 0.3147 0.3379 -0.2024
C14 C 0.3521(4) 0.1139(11) -0.1674(4)
H17 H 0.3596 0.0097 -0.1943
H18 H 0.3890 0.1348 -0.1415
C15 C 0.3038(4) 0.0639(11) -0.1161(3)
H19 H 0.2663 0.0380 -0.1403
H20 H 0.3166 -0.0423 -0.0933
C16 C 0.2902(4) 0.2020(10) -0.0623(4)
H21 H 0.398(2) 0.606(11) 0.012(3)
H22 H 0.360(4) 0.699(5) 0.050(4)
Eu1G Eu 0.219414(18) 0.92492(5) 0.053545(17)
Eu1G_2 Eu 0.219414(18) -0.07508(5) 0.053545(17)
Eu1F Eu 0.280586(18) 0.57508(5) -0.446455(17)
Eu1A Eu 0.219414(18) 0.07508(5) -0.446455(17)
Eu1D Eu -0.280586(18) 0.57508(5) -0.053545(17)
Eu1C Eu -0.219414(18) 0.07508(5) -0.053545(17)
Eu1A_2 Eu 0.219414(18) 1.07508(5) -0.446455(17)
O1G O 0.1808(3) 0.8399(7) -0.0610(3)
O2D O -0.1696(2) 0.5529(7) -0.0548(3)
O2G O 0.3304(2) 0.9471(7) 0.0548(3)
O3G O 0.2516(3) 0.6692(7) -0.0188(2)
O3_2 O 0.2484(3) 1.1692(7) -0.0188(2)
O4G O 0.2392(2) 0.8052(6) -0.3794(2)
O4F O 0.2608(2) 0.6948(6) 0.1206(2)
O4A O 0.2392(2) 0.1948(6) 0.1206(2)
O4A_2 O 0.2392(2) 1.1948(6) 0.1206(2)
O5G O 0.1827(2) 1.0011(7) -0.3282(2)
O5F O 0.3173(2) 0.4989(7) 0.1718(2)
O5A O 0.1827(2) 0.9989(7) 0.1718(2)
O6G O 0.1312(3) 1.1049(8) 0.0361(3)
O7D O -0.1406(2) 0.2758(7) -0.0719(3)
O7G O 0.3594(2) 0.2242(7) 0.0719(3)
C4D C -0.1296(3) 0.4374(11) -0.0655(3)
C7D C -0.0644(3) 0.4936(9) -0.0683(4)
H5D H -0.0429 0.4238 -0.1018
H6D H -0.0623 0.6149 -0.0825
C8D C -0.0334(3) 0.4736(11) 0.0002(4)
H7D H -0.0365 0.3527 0.0146
H8D H -0.0548 0.5446 0.0334
C9G C 0.2031(4) 0.8511(11) -0.3330(4)
C10G C 0.162(2) 0.729(5) -0.2901(14)
H9G H 0.1225 0.7262 -0.3117
H10G H 0.1792 0.6120 -0.2940
C12G C 0.1524(12) 0.763(2) -0.2176(8)
H13G H 0.1151 0.8300 -0.2138
H14G H 0.1853 0.8379 -0.2024
C14G C 0.1479(4) 0.6139(11) -0.1674(4)
H17G H 0.1404 0.5097 -0.1943
H18G H 0.1110 0.6348 -0.1415
C15G C 0.1962(4) 0.5639(11) -0.1161(3)
H19G H 0.2337 0.5380 -0.1403
H20G H 0.1834 0.4577 -0.0933
C16G C 0.2098(4) 0.7020(10) -0.0623(4)
H21G H 0.102(2) 1.106(11) 0.012(3)
H22G H 0.140(4) 1.199(5) 0.050(4)
N1 N 0.4372(3) 0.5934(10) 0.9173(3)
C1 C 0.4260(4) 0.6340(11) 0.7964(4)
H1 H 0.4000 0.6606 0.7606
C2 C 0.4867(4) 0.5990(11) 0.7851(3)
C3 C 0.4952(4) 0.5566(12) 0.9056(4)
H2 H 0.5196 0.5269 0.9425
C5 C 0.5219(4) 0.5598(12) 0.8417(4)
H3 H 0.5632 0.5357 0.8368
C6 C 0.4046(4) 0.6285(12) 0.8630(5)
H4 H 0.3634 0.6519 0.8696
N1B N 0.5628(3) 0.5934(10) 0.5827(3)
C1B C 0.5740(4) 0.6340(11) 0.7036(4)
H1B H 0.6000 0.6606 0.7394
C2B C 0.5133(4) 0.5990(11) 0.7149(3)
C3B C 0.5048(4) 0.5566(12) 0.5944(4)
H2B H 0.4804 0.5269 0.5575
C5B C 0.4781(4) 0.5598(12) 0.6583(4)
H3B H 0.4368 0.5357 0.6632
C6B C 0.5954(4) 0.6285(12) 0.6370(5)
H4B H 0.6366 0.6519 0.6304
loop_
_geom_bond_atom_site_label_1
_geom_bond_atom_site_label_2
_geom_bond_site_symmetry_1
_geom_bond_site_symmetry_2
Eu1 O1 1_555 1_555
O1 C16 1_555 1_555
O2 Eu1 1_555 1_555
O3 Eu1 1_555 1_555
O4 C9 1_555 1_555
O5 C9 1_555 1_555
O6 Eu1 1_555 1_555
O7 C4 1_555 1_555
N1 C3 1_555 1_555
C1 H1 1_555 1_555
C2 C1 1_555 1_555
C3 H2 1_555 1_555
C4 O2 1_555 1_555
C5 C2 1_555 1_555
H3 C5 1_555 1_555
C6 N1 1_555 1_555
H4 C6 1_555 1_555
C7 C4 1_555 1_555
H5 C7 1_555 1_555
H6 C7 1_555 1_555
C8 C7 1_555 1_555
H7 C8 1_555 1_555
H8 C8 1_555 1_555
C9 C10 1_555 1_555
C10 H9 1_555 1_555
H10 C10 1_555 1_555
C12 C10 1_555 1_555
H13 C12 1_555 1_555
H14 C12 1_555 1_555
C14 C12 1_555 1_555
H17 C14 1_555 1_555
H18 C14 1_555 1_555
C15 C14 1_555 1_555
H19 C15 1_555 1_555
H20 C15 1_555 1_555
C16 O3 1_555 1_555
H21 O6 1_555 1_555
H22 O6 1_555 1_555
Eu1G O7 1_555 1_555
Eu1G_2 O3 1_555 1_555
Eu1F O4 1_555 1_555
Eu1A O4 1_555 1_555
Eu1D O2D 1_555 1_555
Eu1C O7D 1_555 1_555
Eu1A_2 O4G 1_555 1_555
O1G Eu1G 1_555 1_555
O2D C4D 1_555 1_555
O2G Eu1G 1_555 1_555
O3G Eu1 1_555 1_555
O3_2 Eu1G 1_555 1_555
O4G Eu1F 1_555 1_555
O4F Eu1 1_555 1_555
O4A Eu1 1_555 1_555
O4A_2 Eu1G 1_555 1_555
O5G Eu1A_2 1_555 1_555
O5F Eu1 1_555 1_555
O5A Eu1G 1_555 1_555
O6G Eu1G 1_555 1_555
O7D C4D 1_555 1_555
O7G Eu1 1_555 1_555
N1B C3B 1_555 1_555
C1B H1B 1_555 1_555
C2B C2 1_555 1_555
C3B H2B 1_555 1_555
C4D C7D 1_555 1_555
C5B C2B 1_555 1_555
H3B C5B 1_555 1_555
C6B N1B 1_555 1_555
H4B C6B 1_555 1_555
C7D H5D 1_555 1_555
H6D C7D 1_555 1_555
C8D C8 1_555 1_555
H7D C8D 1_555 1_555
H8D C8D 1_555 1_555
C9G O4G 1_555 1_555
C10G C9G 1_555 1_555
H9G C10G 1_555 1_555
H10G C10G 1_555 1_555
C12G C10G 1_555 1_555
H13G C12G 1_555 1_555
H14G C12G 1_555 1_555
C14G C12G 1_555 1_555
H17G C14G 1_555 1_555
H18G C14G 1_555 1_555
C15G C14G 1_555 1_555
H19G C15G 1_555 1_555
H20G C15G 1_555 1_555
C16G O1G 1_555 1_555
H21G O6G 1_555 1_555
H22G O6G 1_555 1_555
O5 Eu1F 1_555 1_555
C1 C6 1_555 1_555
C3 C5 1_555 1_555
C15 C16 1_555 1_555
Eu1G O3G 1_555 1_555
Eu1G O4F 1_555 1_555
Eu1G_2 O4A 1_555 1_555
O3G C16G 1_555 1_555
O5G C9G 1_555 1_555
C1B C2B 1_555 1_555
C1B C6B 1_555 1_555
C3B C5B 1_555 1_555
C7D C8D 1_555 1_555
C15G C16G 1_555 1_555

#END
