
#######################################################################
#
#                 Cambridge Crystallographic Data Centre
#                                CCDC 
#
#######################################################################
#
# If this CIF has been generated from an entry in the Cambridge 
# Structural Database, then it will include bibliographic, chemical, 
# crystal, experimental, refinement or atomic coordinate data resulting 
# from the CCDC's data processing and validation procedures.
#
#######################################################################

data_DOKHOB
_chemical_formula_moiety         '(C44 H40 Cu3 N4 O15)n'
_symmetry_cell_setting           monoclinic
_symmetry_space_group_name_H-M   'P 2/c'
_symmetry_Int_Tables_number      13
_space_group_name_Hall           '-P 2yc'
loop_
_symmetry_equiv_pos_site_id
_symmetry_equiv_pos_as_xyz
1 x,y,z
2 -x,y,1/2-z
3 -x,-y,-z
4 x,-y,1/2+z
_cell_length_a                   18.8020(17)
_cell_length_b                   8.5577(8)
_cell_length_c                   16.0542(16)
_cell_angle_alpha                90
_cell_angle_beta                 99.469(7)
_cell_angle_gamma                90
_cell_volume                     2547.95
loop_
_atom_site_label
_atom_site_type_symbol
_atom_site_fract_x
_atom_site_fract_y
_atom_site_fract_z
Cu1 Cu 0.5000 0.4452(2) 0.2500
O1 O 0.2798(5) 1.2283(12) 0.1645(7)
N1 N 0.4963(5) 0.2853(11) 0.1598(6)
C1 C 0.2488(7) 1.108(2) 0.1740(8)
N2 N 0.1313(6) 1.3878(14) 0.1747(7)
C2 C 0.3536(7) 0.8933(16) 0.2685(8)
H1 H 0.3461 1.0019 0.2795
H2 H 0.4044 0.8724 0.2749
H3 H 0.3326 0.8305 0.3077
C3 C 0.3917(7) 0.6118(14) 0.1887(8)
C4 C 0.3253(6) 0.5313(15) 0.0185(8)
H4 H 0.3762 0.5278 0.0171
H5 H 0.2992 0.5246 -0.0380
H6 H 0.3123 0.4451 0.0512
C5 C 0.2248(7) 0.7526(14) -0.0779(8)
C6 C 0.1827(8) 1.0324(18) 0.0016(9)
H7 H 0.1934 1.0476 -0.0543
H8 H 0.1852 1.1309 0.0306
H9 H 0.1351 0.9896 -0.0019
C7 C 0.2675(6) 0.9514(14) 0.1327(7)
C8 C 0.3169(6) 0.8527(15) 0.1756(7)
C9 C 0.3363(6) 0.7184(14) 0.1386(7)
C10 C 0.3070(6) 0.6834(14) 0.0583(7)
C11 C 0.2566(6) 0.7870(14) 0.0128(7)
C12 C 0.2374(6) 0.9200(15) 0.0498(8)
C13 C 0.4421(8) 0.1948(18) 0.1370(10)
H10 H 0.4014 0.2058 0.1625
C14 C 0.5531(8) 0.2644(17) 0.1225(9)
H11 H 0.5932 0.3277 0.1387
C15 C 0.4425(8) 0.0813(19) 0.0754(10)
H12 H 0.4022 0.0175 0.0618
C16 C 0.5562(7) 0.1532(17) 0.0604(10)
H13 H 0.5981 0.1437 0.0369
C17 C 0.4998(6) 0.0587(13) 0.0335(7)
C18 C 0.1461(7) 1.485(2) 0.1158(10)
H14 H 0.1929 1.5229 0.1212
C19 C 0.0651(7) 1.3302(18) 0.1632(9)
H15 H 0.0537 1.2594 0.2030
C20 C 0.0966(6) 1.5341(17) 0.0458(8)
H16 H 0.1106 1.6025 0.0065
C21 C 0.0128(7) 1.3672(19) 0.0978(9)
H17 H -0.0321 1.3195 0.0930
C22 C 0.0261(6) 1.4787(17) 0.0363(8)
Cu2 Cu 0.20825(7) 1.31522(19) 0.26578(10)
O2 O 0.1974(5) 1.0943(10) 0.2197(5)
O3 O 0.3745(4) 0.5281(10) 0.2469(6)
O4 O 0.4544(5) 0.6043(10) 0.1679(5)
O5 O 0.2684(4) 0.7572(10) -0.1311(5)
O6 O 0.1603(4) 0.7183(11) -0.1006(5)
O7 O 0.2456(5) 1.5324(10) 0.2894(6)
Cu1C Cu 0.5000 -0.4452(2) -0.2500
O1A O 0.7202(5) 1.2283(12) 0.3355(7)
N1B N 0.5037(5) -0.2853(11) -0.1598(6)
N1A N 0.5037(5) 0.2853(11) 0.3402(6)
C1A C 0.7512(7) 1.108(2) 0.3260(8)
N2B N -0.1313(6) 1.6122(14) -0.1747(7)
N2A N 0.8687(6) 1.3878(14) 0.3253(7)
C2A C 0.6464(7) 0.8933(16) 0.2315(8)
H1A H 0.6539 1.0019 0.2205
H2A H 0.5956 0.8724 0.2251
H3A H 0.6674 0.8305 0.1923
C3A C 0.6083(7) 0.6118(14) 0.3113(8)
C4A C 0.6747(6) 0.5313(15) 0.4815(8)
H4A H 0.6238 0.5278 0.4829
H5A H 0.7008 0.5246 0.5380
H6A H 0.6877 0.4451 0.4488
C5A C 0.7752(7) 0.7526(14) 0.5779(8)
C6A C 0.8173(8) 1.0324(18) 0.4984(9)
H7A H 0.8066 1.0476 0.5543
H8A H 0.8148 1.1309 0.4694
H9A H 0.8649 0.9896 0.5019
C7A C 0.7325(6) 0.9514(14) 0.3673(7)
C8A C 0.6831(6) 0.8527(15) 0.3244(7)
C9A C 0.6637(6) 0.7184(14) 0.3614(7)
C10A C 0.6930(6) 0.6834(14) 0.4417(7)
C11A C 0.7434(6) 0.7870(14) 0.4872(7)
C12A C 0.7626(6) 0.9200(15) 0.4502(8)
C13B C 0.5579(8) -0.1948(18) -0.1370(10)
H10B H 0.5986 -0.2058 -0.1625
C14B C 0.4469(8) -0.2644(17) -0.1225(9)
H11B H 0.4068 -0.3277 -0.1387
C15B C 0.5575(8) -0.0813(19) -0.0754(10)
H12B H 0.5978 -0.0175 -0.0618
C16B C 0.4438(7) -0.1532(17) -0.0604(10)
H13B H 0.4019 -0.1437 -0.0369
C17B C 0.5002(6) -0.0587(13) -0.0335(7)
C18B C -0.1461(7) 1.515(2) -0.1158(10)
H14B H -0.1929 1.4771 -0.1212
C19B C -0.0651(7) 1.6698(18) -0.1632(9)
H15B H -0.0537 1.7406 -0.2030
C20B C -0.0966(6) 1.4659(17) -0.0458(8)
H16B H -0.1106 1.3975 -0.0065
C21B C -0.0128(7) 1.6328(19) -0.0978(9)
H17B H 0.0321 1.6805 -0.0930
C22B C -0.0261(6) 1.5213(17) -0.0363(8)
Cu2A Cu 0.79175(7) 1.31522(19) 0.23422(10)
Cu2C Cu 0.20825(7) 0.68478(19) -0.23422(10)
Cu2B Cu -0.20825(7) 1.68478(19) -0.26578(10)
Cu2B_2 Cu 0.79175(7) 0.68478(19) 0.73422(10)
O2A O 0.8026(5) 1.0943(10) 0.2803(5)
O3A O 0.6255(4) 0.5281(10) 0.2531(6)
O4A O 0.5456(5) 0.6043(10) 0.3321(5)
O5A O 0.7316(4) 0.7572(10) 0.6311(5)
O5C O 0.2684(4) 1.2428(10) 0.3689(5)
O5B O 0.7316(4) 1.2428(10) 0.1311(5)
O6A O 0.8397(4) 0.7183(11) 0.6006(5)
O7A O 0.7544(5) 1.5324(10) 0.2106(6)
O8 O 0.1581(10) 0.7926(17) 0.2673(13)
loop_
_geom_bond_atom_site_label_1
_geom_bond_atom_site_label_2
_geom_bond_site_symmetry_1
_geom_bond_site_symmetry_2
Cu1 N1 1_555 1_555
O1 C1 1_555 1_555
N1 C13 1_555 1_555
C1 C7 1_555 1_555
N2 C18 1_555 1_555
C2 H1 1_555 1_555
H2 C2 1_555 1_555
H3 C2 1_555 1_555
C3 C9 1_555 1_555
C4 H4 1_555 1_555
H5 C4 1_555 1_555
H6 C4 1_555 1_555
C5 C11 1_555 1_555
C6 H7 1_555 1_555
H8 C6 1_555 1_555
H9 C6 1_555 1_555
C7 C8 1_555 1_555
C8 C2 1_555 1_555
C9 C8 1_555 1_555
C10 C4 1_555 1_555
C11 C10 1_555 1_555
C12 C6 1_555 1_555
C13 H10 1_555 1_555
C14 N1 1_555 1_555
H11 C14 1_555 1_555
C15 C13 1_555 1_555
H12 C15 1_555 1_555
C16 C14 1_555 1_555
H13 C16 1_555 1_555
C17 C15 1_555 1_555
C18 H14 1_555 1_555
C19 N2 1_555 1_555
H15 C19 1_555 1_555
C20 C18 1_555 1_555
H16 C20 1_555 1_555
C21 C19 1_555 1_555
H17 C21 1_555 1_555
C22 C20 1_555 1_555
Cu2 O1 1_555 1_555
O2 C1 1_555 1_555
O3 C3 1_555 1_555
O4 Cu1 1_555 1_555
O5 C5 1_555 1_555
O6 C5 1_555 1_555
O7 Cu2 1_555 1_555
Cu1C N1B 1_555 1_555
O1A C1A 1_555 1_555
N1B C13B 1_555 1_555
N1A Cu1 1_555 1_555
C1A C7A 1_555 1_555
N2B C18B 1_555 1_555
N2A Cu2A 1_555 1_555
C2A H1A 1_555 1_555
H2A C2A 1_555 1_555
H3A C2A 1_555 1_555
C3A C9A 1_555 1_555
C4A H4A 1_555 1_555
H5A C4A 1_555 1_555
H6A C4A 1_555 1_555
C5A C11A 1_555 1_555
C6A H7A 1_555 1_555
H8A C6A 1_555 1_555
H9A C6A 1_555 1_555
C7A C8A 1_555 1_555
C8A C2A 1_555 1_555
C9A C8A 1_555 1_555
C10A C4A 1_555 1_555
C11A C10A 1_555 1_555
C12A C6A 1_555 1_555
C13B H10B 1_555 1_555
C14B N1B 1_555 1_555
H11B C14B 1_555 1_555
C15B C13B 1_555 1_555
H12B C15B 1_555 1_555
C16B C14B 1_555 1_555
H13B C16B 1_555 1_555
C17B C17 1_555 1_555
C18B H14B 1_555 1_555
C19B N2B 1_555 1_555
H15B C19B 1_555 1_555
C20B C18B 1_555 1_555
H16B C20B 1_555 1_555
C21B C19B 1_555 1_555
H17B C21B 1_555 1_555
C22B C22 1_555 1_555
Cu2A O1A 1_555 1_555
Cu2C O5 1_555 1_555
Cu2B N2B 1_555 1_555
Cu2B_2 O5A 1_555 1_555
O2A C1A 1_555 1_555
O3A C3A 1_555 1_555
O4A Cu1 1_555 1_555
O5A C5A 1_555 1_555
O5C Cu2 1_555 1_555
O5B Cu2A 1_555 1_555
O6A C5A 1_555 1_555
O7A Cu2A 1_555 1_555
N2 Cu2 1_555 1_555
C3 O4 1_555 1_555
C7 C12 1_555 1_555
C9 C10 1_555 1_555
C11 C12 1_555 1_555
C16 C17 1_555 1_555
C21 C22 1_555 1_555
Cu2 O2 1_555 1_555
C3A O4A 1_555 1_555
C7A C12A 1_555 1_555
C9A C10A 1_555 1_555
C11A C12A 1_555 1_555
C15B C17B 1_555 1_555
C16B C17B 1_555 1_555
C20B C22B 1_555 1_555
C21B C22B 1_555 1_555
Cu2A O2A 1_555 1_555

#END
