
#######################################################################
#
#                 Cambridge Crystallographic Data Centre
#                                CCDC 
#
#######################################################################
#
# If this CIF has been generated from an entry in the Cambridge 
# Structural Database, then it will include bibliographic, chemical, 
# crystal, experimental, refinement or atomic coordinate data resulting 
# from the CCDC's data processing and validation procedures.
#
#######################################################################

data_XEQGEH
_chemical_formula_moiety         '(C38 H27 N5 O4 Zn1)n'
_symmetry_cell_setting           monoclinic
_symmetry_space_group_name_H-M   'P 21/n'
_symmetry_Int_Tables_number      14
_space_group_name_Hall           '-P 2yn'
loop_
_symmetry_equiv_pos_site_id
_symmetry_equiv_pos_as_xyz
1 x,y,z
2 1/2-x,1/2+y,1/2-z
3 -x,-y,-z
4 1/2+x,1/2-y,1/2+z
_cell_length_a                   11.972(3)
_cell_length_b                   12.043(4)
_cell_length_c                   27.792(8)
_cell_angle_alpha                90
_cell_angle_beta                 99.959(4)
_cell_angle_gamma                90
_cell_volume                     3946.64
loop_
_atom_site_label
_atom_site_type_symbol
_atom_site_fract_x
_atom_site_fract_y
_atom_site_fract_z
N1 N 1.0896(3) -0.4381(3) 0.57562(14)
C1 C 1.0318(4) -0.5123(4) 0.59888(19)
H1 H 1.0548 -0.5848 0.6066
C2 C 1.5801(6) -0.1124(7) 0.2470(3)
H2 H 1.6513 -0.0921 0.2410
C3 C 1.5418(6) -0.0718(7) 0.2871(3)
H3 H 1.5873 -0.0234 0.3080
C4 C 1.4361(6) -0.1014(6) 0.2971(2)
H4 H 1.4104 -0.0736 0.3244
C5 C 1.3686(4) -0.1745(5) 0.2647(2)
C6 C 1.4068(5) -0.2147(6) 0.2254(2)
H5 H 1.3617 -0.2637 0.2046
C7 C 1.5125(6) -0.1843(7) 0.2153(2)
H6 H 1.5375 -0.2116 0.1877
C8 C 1.1654(4) -0.1861(4) 0.23418(19)
C9 C 1.0743(5) -0.2594(5) 0.2275(2)
H7 H 1.0734 -0.3180 0.2492
C10 C 0.9845(5) -0.2463(5) 0.1887(2)
H8 H 0.9248 -0.2968 0.1843
C11 C 0.9842(5) -0.1586(4) 0.1569(2)
C12 C 1.0697(5) -0.0872(5) 0.1641(2)
H9 H 1.0665 -0.0258 0.1436
C13 C 1.1659(5) -0.0994(5) 0.20155(19)
H10 H 1.2271 -0.0509 0.2040
C14 C 0.8798(6) -0.1442(5) 0.1156(2)
C15 C 1.2409(4) -0.2336(4) 0.31994(18)
C16 C 1.1478(4) -0.1968(4) 0.33852(19)
H11 H 1.0942 -0.1519 0.3195
C17 C 1.1337(4) -0.2261(4) 0.38508(18)
H12 H 1.0715 -0.1989 0.3973
C18 C 1.2098(4) -0.2952(4) 0.41412(16)
C19 C 1.3021(4) -0.3350(4) 0.39428(18)
H13 H 1.3537 -0.3828 0.4127
C20 C 1.3180(4) -0.3045(4) 0.34780(18)
H14 H 1.3799 -0.3315 0.3353
C21 C 1.1931(4) -0.3267(4) 0.46478(17)
C22 C 0.3417(4) 0.3202(4) 0.55210(19)
H15 H 0.4121 0.3547 0.5591
C23 C 0.2114(4) 0.1914(4) 0.53756(18)
H16 H 0.1750 0.1231 0.5327
C24 C 0.1617(4) 0.2915(4) 0.53526(18)
H17 H 0.0839 0.3044 0.5286
C25 C 0.4134(4) 0.1261(4) 0.55603(18)
C26 C 0.5193(4) 0.1475(4) 0.54251(19)
H18 H 0.5330 0.2150 0.5284
C27 C 0.6020(4) 0.0679(4) 0.5504(2)
H19 H 0.6719 0.0819 0.5413
C28 C 0.5841(4) -0.0338(4) 0.57172(18)
C29 C 0.4788(4) -0.0543(4) 0.5842(2)
H20 H 0.4653 -0.1224 0.5979
C30 C 0.3928(4) 0.0250(4) 0.5766(2)
H21 H 0.3226 0.0104 0.5853
C31 C 0.6746(4) -0.1195(4) 0.57977(18)
C32 C 0.7886(4) -0.0885(4) 0.59219(19)
H22 H 0.8075 -0.0140 0.5970
C33 C 0.8739(4) -0.1680(4) 0.59737(19)
H23 H 0.9494 -0.1470 0.6062
C34 C 0.8457(4) -0.2786(4) 0.58930(17)
C35 C 0.7351(4) -0.3128(4) 0.57806(17)
H24 H 0.7175 -0.3877 0.5735
C36 C 0.6491(4) -0.2328(4) 0.57353(18)
H25 H 0.5737 -0.2551 0.5662
C37 C 1.0292(4) -0.3459(4) 0.57219(17)
H26 H 1.0497 -0.2804 0.5583
C38 C 0.9359(4) -0.4656(4) 0.60922(19)
H27 H 0.8820 -0.4984 0.6251
N2 N 1.2568(4) -0.2023(4) 0.27288(16)
N3 N 0.2450(3) 0.3728(3) 0.54451(14)
N4 N 0.3265(3) 0.2090(3) 0.54843(15)
N5 N 0.9354(3) -0.3587(3) 0.59113(13)
O1 O 1.2545(3) -0.4073(3) 0.48450(13)
O2 O 1.1246(3) -0.2757(3) 0.48449(13)
O3 O 0.8110(4) -0.2185(4) 0.1057(2)
O4 O 0.8790(4) -0.0554(4) 0.09304(19)
Zn1 Zn 1.23402(4) -0.45787(4) 0.54878(2)
N3_2 N 1.2450(3) -0.6272(3) 0.54451(14)
O4C O 1.3790(4) -0.4446(4) 0.59304(19)
Zn1_2 Zn 0.23402(4) 0.54213(4) 0.54878(2)
Zn1C Zn 0.73402(4) -0.04213(4) 0.04878(2)
loop_
_geom_bond_atom_site_label_1
_geom_bond_atom_site_label_2
_geom_bond_site_symmetry_1
_geom_bond_site_symmetry_2
N1 C1 1_555 1_555
C1 H1 1_555 1_555
C2 H2 1_555 1_555
C3 C2 1_555 1_555
H3 C3 1_555 1_555
C4 C3 1_555 1_555
H4 C4 1_555 1_555
C5 C4 1_555 1_555
C6 C5 1_555 1_555
H5 C6 1_555 1_555
C7 C2 1_555 1_555
H6 C7 1_555 1_555
C8 C9 1_555 1_555
C9 H7 1_555 1_555
C10 C9 1_555 1_555
H8 C10 1_555 1_555
C11 C10 1_555 1_555
C12 C11 1_555 1_555
H9 C12 1_555 1_555
C13 C8 1_555 1_555
H10 C13 1_555 1_555
C14 C11 1_555 1_555
C15 C16 1_555 1_555
C16 H11 1_555 1_555
C17 C16 1_555 1_555
H12 C17 1_555 1_555
C18 C17 1_555 1_555
C19 C18 1_555 1_555
H13 C19 1_555 1_555
C20 C15 1_555 1_555
H14 C20 1_555 1_555
C21 C18 1_555 1_555
C22 H15 1_555 1_555
C23 H16 1_555 1_555
C24 C23 1_555 1_555
H17 C24 1_555 1_555
C25 C26 1_555 1_555
C26 H18 1_555 1_555
C27 C26 1_555 1_555
H19 C27 1_555 1_555
C28 C27 1_555 1_555
C29 C28 1_555 1_555
H20 C29 1_555 1_555
C30 C25 1_555 1_555
H21 C30 1_555 1_555
C31 C28 1_555 1_555
C32 C31 1_555 1_555
H22 C32 1_555 1_555
C33 C32 1_555 1_555
H23 C33 1_555 1_555
C34 C33 1_555 1_555
C35 C34 1_555 1_555
H24 C35 1_555 1_555
C36 C31 1_555 1_555
H25 C36 1_555 1_555
C37 N1 1_555 1_555
H26 C37 1_555 1_555
C38 C1 1_555 1_555
H27 C38 1_555 1_555
N2 C5 1_555 1_555
N3 C22 1_555 1_555
N4 C22 1_555 1_555
N5 C34 1_555 1_555
O1 C21 1_555 1_555
O2 C21 1_555 1_555
O3 C14 1_555 1_555
O4 C14 1_555 1_555
Zn1 N1 1_555 1_555
N3_2 Zn1 1_555 1_555
O4C Zn1 1_555 1_555
Zn1_2 N3 1_555 1_555
Zn1C O4 1_555 1_555
C6 C7 1_555 1_555
C8 N2 1_555 1_555
C12 C13 1_555 1_555
C15 N2 1_555 1_555
C19 C20 1_555 1_555
C23 N4 1_555 1_555
C24 N3 1_555 1_555
C25 N4 1_555 1_555
C29 C30 1_555 1_555
C35 C36 1_555 1_555
C37 N5 1_555 1_555
C38 N5 1_555 1_555
O1 Zn1 1_555 1_555

#END
