
#######################################################################
#
#                 Cambridge Crystallographic Data Centre
#                                CCDC 
#
#######################################################################
#
# If this CIF has been generated from an entry in the Cambridge 
# Structural Database, then it will include bibliographic, chemical, 
# crystal, experimental, refinement or atomic coordinate data resulting 
# from the CCDC's data processing and validation procedures.
#
#######################################################################

data_IZOTUM
_chemical_formula_moiety         '(C12 H8 Ag2 B2 F8 N8)n'
_symmetry_cell_setting           orthorhombic
_symmetry_space_group_name_H-M   'P 21 21 21'
_symmetry_Int_Tables_number      19
_space_group_name_Hall           'P 2ac 2ab'
loop_
_symmetry_equiv_pos_site_id
_symmetry_equiv_pos_as_xyz
1 x,y,z
2 1/2-x,-y,1/2+z
3 1/2+x,1/2-y,-z
4 -x,1/2+y,1/2-z
_cell_length_a                   10.0144(1)
_cell_length_b                   10.1260(1)
_cell_length_c                   20.4363(3)
_cell_angle_alpha                90
_cell_angle_beta                 90
_cell_angle_gamma                90
_cell_volume                     2072.36
loop_
_atom_site_label
_atom_site_type_symbol
_atom_site_fract_x
_atom_site_fract_y
_atom_site_fract_z
C1 C -0.3282(10) 0.0259(9) 0.1350(5)
H1 H -0.3659 0.0910 0.1040
H2 H -0.4035 -0.0168 0.1582
Ag1 Ag 0.00538(8) 0.23204(7) 0.27250(3)
Ag2 Ag -0.49036(8) 0.23417(7) 0.52165(3)
N1 N -0.4117(9) 0.3829(8) 0.4473(4)
C2 C -0.2690(10) 0.5460(10) 0.3803(5)
H3 H -0.2330 0.6154 0.4094
H4 H -0.3250 0.5888 0.3464
C3 C -0.3470(9) 0.4548(9) 0.4171(5)
N2 N 0.1123(8) 0.0649(8) 0.3203(4)
N3 N 0.4200(9) 0.0690(8) 0.4598(5)
C4 C -0.1564(9) 0.4719(9) 0.3484(4)
C5 C 0.2908(10) 0.4571(11) 0.1172(6)
H5 H 0.3689 0.4893 0.1422
H6 H 0.3235 0.4033 0.0800
C6 C -0.2543(8) -0.0736(10) 0.0987(4)
C7 C 0.2935(10) -0.0814(10) 0.3760(5)
H7 H 0.2516 -0.1584 0.3977
H8 H 0.3574 -0.1142 0.3427
C8 C 0.2035(10) 0.3762(9) 0.1599(4)
C9 C 0.3630(9) 0.0002(9) 0.4242(4)
C10 C 0.1907(10) 0.0009(9) 0.3447(4)
C11 C -0.2459(9) 0.0937(9) 0.1818(4)
C12 C 0.2121(9) 0.5697(9) 0.0928(4)
N4 N 0.1384(9) 0.3124(8) 0.1903(4)
N5 N -0.0761(8) 0.4105(8) 0.3250(4)
N6 N -0.1788(11) 0.1474(10) 0.2170(5)
N7 N -0.1904(8) -0.1490(9) 0.0723(4)
N8 N 0.1550(8) 0.6585(8) 0.0744(4)
N3_2 N -0.5800(9) 0.0690(8) 0.4598(5)
N7A N -0.3096(8) 0.1490(9) 0.5723(4)
N8A N -0.6550(8) 0.3415(8) 0.5744(4)
Ag2_2 Ag 0.50964(8) 0.23417(7) 0.52165(3)
Ag2A Ag -0.00964(8) -0.23417(7) 0.02165(3)
Ag2A_2 Ag -0.00964(8) 0.76583(7) 0.02165(3)
F1 F 0.4888(6) 0.2304(6) 0.2008(3)
B1 B 0.4947(13) 0.2348(9) 0.2683(4)
F2 F 0.5816(7) 0.3320(8) 0.2866(4)
F3 F 0.5229(10) 0.1153(8) 0.2913(4)
F4 F 0.3634(6) 0.2711(10) 0.2914(3)
F5 F 0.4689(5) 0.2346(5) 0.0505(2)
B2 B 0.4940(10) 0.2311(8) -0.0161(4)
F6 F 0.4636(8) 0.1137(6) -0.0423(3)
F7 F 0.4254(9) 0.3336(7) -0.0458(4)
F8 F 0.6317(6) 0.2492(10) -0.0249(3)
loop_
_geom_bond_atom_site_label_1
_geom_bond_atom_site_label_2
_geom_bond_site_symmetry_1
_geom_bond_site_symmetry_2
C1 H1 1_555 1_555
H2 C1 1_555 1_555
Ag1 N2 1_555 1_555
Ag2 N1 1_555 1_555
N1 C3 1_555 1_555
C2 H3 1_555 1_555
H4 C2 1_555 1_555
C3 C2 1_555 1_555
N2 C10 1_555 1_555
N3 C9 1_555 1_555
C4 C2 1_555 1_555
C5 H5 1_555 1_555
H6 C5 1_555 1_555
C6 C1 1_555 1_555
C7 H7 1_555 1_555
H8 C7 1_555 1_555
C8 C5 1_555 1_555
C9 C7 1_555 1_555
C10 C7 1_555 1_555
C11 C1 1_555 1_555
C12 C5 1_555 1_555
N4 Ag1 1_555 1_555
N5 Ag1 1_555 1_555
N6 Ag1 1_555 1_555
N7 C6 1_555 1_555
N8 C12 1_555 1_555
F1 B1 1_555 1_555
B1 F2 1_555 1_555
F3 B1 1_555 1_555
F4 B1 1_555 1_555
F5 B2 1_555 1_555
B2 F6 1_555 1_555
F7 B2 1_555 1_555
F8 B2 1_555 1_555
N3_2 Ag2 1_555 1_555
N7A Ag2 1_555 1_555
N8A Ag2 1_555 1_555
Ag2_2 N3 1_555 1_555
Ag2A N7 1_555 1_555
Ag2A_2 N8 1_555 1_555
C4 N5 1_555 1_555
C8 N4 1_555 1_555
C11 N6 1_555 1_555

#END
