
#######################################################################
#
#                 Cambridge Crystallographic Data Centre
#                                CCDC 
#
#######################################################################
#
# If this CIF has been generated from an entry in the Cambridge 
# Structural Database, then it will include bibliographic, chemical, 
# crystal, experimental, refinement or atomic coordinate data resulting 
# from the CCDC's data processing and validation procedures.
#
#######################################################################

data_FUTDII
_chemical_formula_moiety         '(C90 H54 Cl1 Fe6 O30)n'
_symmetry_cell_setting           rhombohedral
_symmetry_space_group_name_H-M   'R -3 m'
_symmetry_Int_Tables_number      166
_space_group_name_Hall           '-R 3 2"'
loop_
_symmetry_equiv_pos_site_id
_symmetry_equiv_pos_as_xyz
1 x,y,z
2 -y,x-y,z
3 -x+y,-x,z
4 x-y,-y,-z
5 -x,-x+y,-z
6 y,x,-z
7 2/3+x,1/3+y,1/3+z
8 2/3-y,1/3+x-y,1/3+z
9 2/3-x+y,1/3-x,1/3+z
10 2/3+x-y,1/3-y,1/3-z
11 2/3-x,1/3-x+y,1/3-z
12 2/3+y,1/3+x,1/3-z
13 1/3+x,2/3+y,2/3+z
14 1/3-y,2/3+x-y,2/3+z
15 1/3-x+y,2/3-x,2/3+z
16 1/3+x-y,2/3-y,2/3-z
17 1/3-x,2/3-x+y,2/3-z
18 1/3+y,2/3+x,2/3-z
19 -x,-y,-z
20 y,-x+y,-z
21 x-y,x,-z
22 -x+y,y,z
23 x,x-y,z
24 -y,-x,z
25 1/3-x,2/3-y,2/3-z
26 1/3+y,2/3-x+y,2/3-z
27 1/3+x-y,2/3+x,2/3-z
28 1/3-x+y,2/3+y,2/3+z
29 1/3+x,2/3+x-y,2/3+z
30 1/3-y,2/3-x,2/3+z
31 2/3-x,1/3-y,1/3-z
32 2/3+y,1/3-x+y,1/3-z
33 2/3+x-y,1/3+x,1/3-z
34 2/3-x+y,1/3+y,1/3+z
35 2/3+x,1/3+x-y,1/3+z
36 2/3-y,1/3-x,1/3+z
_cell_length_a                   27.1117(9)
_cell_length_b                   27.1117(9)
_cell_length_c                   16.5413(13)
_cell_angle_alpha                90
_cell_angle_beta                 90
_cell_angle_gamma                120
_cell_volume                     10529.6
loop_
_atom_site_label
_atom_site_type_symbol
_atom_site_fract_x
_atom_site_fract_y
_atom_site_fract_z
Cl1 Cl 0.0000 0.0000 0.0000
Fe1 Fe 0.19952(2) -0.19953(4) 0.32664(7)
O1 O 0.24405(28) -0.13752(34) 0.4108(3)
O2 O 0.1968(3) -0.0900(4) 0.4242(3)
O3 O 0.2483(2) -0.24821(22) 0.3281(4)
H1 H 0.2370 -0.2788 0.3612
C1 C 0.2408(3) -0.0950(3) 0.4309(4)
C2 C 0.2922(2) -0.0464(3) 0.4677(4)
C3 C 0.2896 0.0000(3) 0.5000
H3 H 0.2546 0.0000 0.5000
C4 C 0.3430(2) -0.0468(3) 0.4716(4)
H4 H 0.3438 -0.0799 0.4546
C5 C 0.3931 0.0000(3) 0.5000
C6 C 0.4485 0.0000(3) 0.5000
C7 C 0.4821(3) 0.0178(3) 0.4298(4)
C8 C 0.4660(3) 0.0362(3) 0.3615(5)
H5 H 0.4299 0.0338 0.3561
C9 C 0.5085(3) 0.0587(3) 0.3007(7)
H6 H 0.5013 0.0756 0.2553
Fe1C Fe 0.39905(4) 0.19953(4) 0.67336(7)
Fe1U Fe 0.60095(4) -0.19953(4) 0.32664(7)
Fe1R Fe 0.80048(2) 0.19953(4) 0.67336(7)
Fe1Q Fe 0.13380(4) -0.13381(2) 0.34003(7)
Fe1M Fe 0.53286(4) 0.06572(4) -0.00669(7)
Fe1H Fe 0.26762(4) 0.13381(2) 0.65997(7)
Fe1Z Fe 0.73238(4) -0.13381(2) 0.34003(7)
Fe1IA Fe 0.86620(4) 0.13381(2) 0.65997(7)
Fe1J Fe 0.46715(2) -0.06572(4) 0.00669(7)
Fe1Y Fe 0.13380(4) 0.26762(4) 0.34003(7)
Fe1V Fe 0.19952(2) 0.39905(4) 0.32664(7)
Fe1CA Fe 0.53286(4) 0.46715(2) -0.00669(7)
Fe1DA Fe 0.46715(2) 0.53286(4) 0.00669(7)
Fe1S Fe -0.19953(4) -0.39905(4) 0.67336(7)
Fe1HA Fe -0.13381(2) -0.26762(4) 0.65997(7)
Fe1A Fe 0.19953(4) -0.60095(4) 0.32664(7)
Fe1P Fe 0.13381(2) -0.73238(4) 0.34003(7)
Fe1E Fe -0.19953(4) -0.80048(2) 0.67336(7)
Fe1F Fe -0.13381(2) -0.86620(4) 0.65997(7)
O1C O 0.38157(44) 0.13752(34) 0.5892(3)
O1U O 0.61843(44) -0.13752(34) 0.4108(3)
O1R O 0.75595(28) 0.13752(34) 0.5892(3)
O1Q O 0.19581(34) -0.08928(28) 0.2559(3)
O1M O 0.47085(34) 0.04824(44) 0.0775(3)
O1Y O 0.19581(34) 0.28510(44) 0.2559(3)
O1CA O 0.47085(34) 0.42262(28) 0.0775(3)
O1W O 0.13752(34) -0.24405(28) 0.4108(3)
O1S O -0.13752(34) -0.38157(44) 0.5892(3)
O1A O 0.13752(34) -0.61843(44) 0.4108(3)
O1E O -0.13752(34) -0.75595(28) 0.5892(3)
O1T O 0.38157(44) 0.24405(28) 0.5892(3)
O1B O 0.61843(44) -0.24405(28) 0.4108(3)
O1E_2 O 0.86248(34) 0.24405(28) 0.5892(3)
O1X O 0.08928(28) -0.19581(34) 0.2559(3)
O1BA O 0.57738(28) 0.04824(44) 0.0775(3)
O2C O 0.2868(5) 0.0900(4) 0.5758(3)
O2U O 0.7132(5) -0.0900(4) 0.4242(3)
O2R O 0.8032(3) 0.0900(4) 0.5758(3)
O2Q O 0.2433(4) -0.1365(3) 0.2425(3)
O2M O 0.4233(4) -0.0465(5) 0.0909(3)
O2Y O 0.2433(4) 0.3799(5) 0.2425(3)
O2CA O 0.4233(4) 0.4699(3) 0.0909(3)
O2W O 0.0900(4) -0.1968(3) 0.4242(3)
O2S O -0.0900(4) -0.2868(5) 0.5758(3)
O2A O 0.0900(4) -0.7132(5) 0.4242(3)
O2E O -0.0900(4) -0.8032(3) 0.5758(3)
O2X O 0.1365(3) -0.2433(4) 0.2425(3)
O2H O 0.3799(5) 0.1365(3) 0.7575(3)
O2GA O 0.3799(5) 0.2433(4) 0.7575(3)
O2Z O 0.6201(5) -0.1365(3) 0.2425(3)
O2O O 0.6201(5) -0.2433(4) 0.2425(3)
O2IA O 0.7567(4) 0.1365(3) 0.7575(3)
O2F O 0.8635(3) 0.2433(4) 0.7575(3)
O2J O 0.4699(3) 0.0465(5) -0.0909(3)
O2EA O 0.5767(4) 0.0465(5) -0.0909(3)
O3C O 0.49651(30) 0.24821(22) 0.6719(4)
O3U O 0.50349(30) -0.24821(22) 0.3281(4)
O3R O 0.7517(2) 0.24821(22) 0.6719(4)
O3Q O 0.08512(22) -0.0850(2) 0.3386(4)
O3M O 0.58154(22) 0.16318(30) -0.0052(4)
H1W H 0.2788 -0.2370 0.3612
H1C H 0.5158 0.2788 0.6388
H1T H 0.5158 0.2370 0.6388
H1U H 0.4842 -0.2788 0.3612
H1B H 0.4842 -0.2370 0.3612
H1R H 0.7630 0.2788 0.6388
H1E H 0.7212 0.2370 0.6388
H1Q H 0.0545 -0.0963 0.3055
H1X H 0.0963 -0.0545 0.3055
H1M H 0.6121 0.1825 0.0279
H1BA H 0.5703 0.1825 0.0279
C1C C 0.3358(4) 0.0950(3) 0.5691(4)
C1U C 0.6642(4) -0.0950(3) 0.4309(4)
C1R C 0.7592(3) 0.0950(3) 0.5691(4)
C1Q C 0.2383(3) -0.0925(3) 0.2358(4)
C1M C 0.4283(3) 0.0025(4) 0.0976(4)
C1Y C 0.2383(3) 0.3309(4) 0.2358(4)
C1CA C 0.4283(3) 0.4259(3) 0.0976(4)
C1W C 0.0950(3) -0.2408(3) 0.4309(4)
C1S C -0.0950(3) -0.3358(4) 0.5691(4)
C1A C 0.0950(3) -0.6642(4) 0.4309(4)
C1E C -0.0950(3) -0.7592(3) 0.5691(4)
C2C C 0.3386(4) 0.0464(3) 0.5323(4)
C2U C 0.6614(4) -0.0464(3) 0.4677(4)
C2R C 0.7078(2) 0.0464(3) 0.5323(4)
C2Q C 0.2869(3) -0.0411(2) 0.1990(4)
C2M C 0.3797(3) 0.0053(4) 0.1344(4)
C2Y C 0.2869(3) 0.3281(4) 0.1990(4)
C2CA C 0.3797(3) 0.3745(2) 0.1344(4)
C2W C 0.0464(3) -0.2922(2) 0.4677(4)
C2S C -0.0464(3) -0.3386(4) 0.5323(4)
C2A C 0.0464(3) -0.6614(4) 0.4677(4)
C2E C -0.0464(3) -0.7078(2) 0.5323(4)
C3R C 0.7104 0.0000(3) 0.5000
C3M C 0.3333(3) -0.0437(3) 0.1667
C3Y C 0.3333(3) 0.3771(3) 0.1667
C3S C -0.0000(3) -0.2896(3) 0.5000
C3A C -0.0000(3) -0.7104(3) 0.5000
H3R H 0.7454 0.0000 0.5000
H3M H 0.3333 -0.0787 0.1667
H3Y H 0.3333 0.4121 0.1667
H3S H 0.0000 -0.2546 0.5000
H3A H -0.0000 -0.7454 0.5000
C4C C 0.3898(4) 0.0468(3) 0.5284(4)
C4U C 0.6102(4) -0.0468(3) 0.4716(4)
C4R C 0.6570(2) 0.0468(3) 0.5284(4)
C4Q C 0.2865(3) 0.0097(2) 0.1951(4)
C4M C 0.3801(3) 0.0565(4) 0.1383(4)
C4Y C 0.2865(3) 0.2769(4) 0.1951(4)
C4CA C 0.3801(3) 0.3237(2) 0.1383(4)
C4W C 0.0468(3) -0.3430(2) 0.4716(4)
C4S C -0.0468(3) -0.3898(4) 0.5284(4)
C4A C 0.0468(3) -0.6102(4) 0.4716(4)
C4E C -0.0468(3) -0.6570(2) 0.5284(4)
H4C H 0.4237 0.0799 0.5454
H4R H 0.6562 0.0799 0.5454
H4U H 0.5763 -0.0799 0.4546
H4Q H 0.2534 0.0105 0.2121
H4M H 0.4132 0.0904 0.1213
H4CA H 0.4132 0.3229 0.1213
H4Y H 0.2534 0.2430 0.2121
H4W H 0.0799 -0.3438 0.4546
H4S H -0.0799 -0.4237 0.5454
H4E H -0.0799 -0.6562 0.5454
H4A H 0.0799 -0.5763 0.4546
C5R C 0.6069 0.0000(3) 0.5000
C5M C 0.3333(3) 0.0598(3) 0.1667
C5Y C 0.3333(3) 0.2736(3) 0.1667
C5S C -0.0000(3) -0.3931(3) 0.5000
C5A C -0.0000(3) -0.6069(3) 0.5000
C6R C 0.5515 0.0000(3) 0.5000
C6M C 0.3333(3) 0.1152(3) 0.1667
C6Y C 0.3333(3) 0.2182(3) 0.1667
C6S C 0.0000(3) -0.4485(3) 0.5000
C6A C -0.0000(3) -0.5515(3) 0.5000
C7U C 0.5357(4) 0.0178(3) 0.4298(4)
C7R C 0.5179(3) -0.0178(3) 0.5702(4)
C7C C 0.4643(4) -0.0178(3) 0.5702(4)
C7Q C 0.3511(3) 0.1488(3) 0.2369(4)
C7Y C 0.3511(3) 0.2024(4) 0.2369(4)
C7CA C 0.3155(3) 0.1846(3) 0.0965(4)
C7M C 0.3155(3) 0.1310(4) 0.0965(4)
C7W C -0.0178(3) -0.4821(3) 0.4298(4)
C7A C -0.0178(3) -0.5357(4) 0.4298(4)
C7E C 0.0178(3) -0.5179(3) 0.5702(4)
C7S C 0.0178(3) -0.4643(4) 0.5702(4)
C8U C 0.5702(4) 0.0362(3) 0.3615(5)
C8R C 0.5340(3) -0.0362(3) 0.6385(5)
C8C C 0.4298(4) -0.0362(3) 0.6385(5)
C8Q C 0.3695(3) 0.1327(3) 0.3052(5)
C8Y C 0.3695(3) 0.2369(4) 0.3052(5)
C8CA C 0.2971(3) 0.2007(3) 0.0282(5)
C8M C 0.2971(3) 0.0965(4) 0.0282(5)
C8W C -0.0362(3) -0.4660(3) 0.3615(5)
C8A C -0.0362(3) -0.5702(4) 0.3615(5)
C8E C 0.0362(3) -0.5340(3) 0.6385(5)
C8S C 0.0362(3) -0.4298(4) 0.6385(5)
H5R H 0.5701 -0.0338 0.6439
H5C H 0.3961 -0.0338 0.6439
H5U H 0.6039 0.0338 0.3561
H5Q H 0.3671 0.0966 0.3106
H5CA H 0.2995 0.2368 0.0228
H5M H 0.2995 0.0628 0.0228
H5Y H 0.3671 0.2706 0.3106
H5W H -0.0338 -0.4299 0.3561
H5E H 0.0338 -0.5701 0.6439
H5S H 0.0338 -0.3961 0.6439
H5A H -0.0338 -0.6039 0.3561
C9U C 0.5502(4) 0.0587(3) 0.3007(7)
C9R C 0.4915(3) -0.0587(3) 0.6993(7)
C9C C 0.4498(4) -0.0587(3) 0.6993(7)
C9Q C 0.3920(3) 0.1752(3) 0.3660(7)
C9Y C 0.3920(3) 0.2169(4) 0.3660(7)
C9CA C 0.2746(3) 0.1582(3) -0.0326(7)
C9M C 0.2746(3) 0.1165(4) -0.0326(7)
C9W C -0.0587(3) -0.5085(3) 0.3007(7)
C9A C -0.0587(3) -0.5502(4) 0.3007(7)
C9E C 0.0587(3) -0.4915(3) 0.6993(7)
C9S C 0.0587(3) -0.4498(4) 0.6993(7)
H6R H 0.4987 -0.0756 0.7447
H6C H 0.4257 -0.0756 0.7447
H6U H 0.5743 0.0756 0.2553
H6Q H 0.4089 0.1680 0.4114
H6CA H 0.2577 0.1654 -0.0780
H6M H 0.2577 0.0924 -0.0780
H6Y H 0.4089 0.2410 0.4114
H6W H -0.0756 -0.5013 0.2553
H6E H 0.0756 -0.4987 0.7447
H6S H 0.0756 -0.4257 0.7447
H6A H -0.0756 -0.5743 0.2553
loop_
_geom_bond_atom_site_label_1
_geom_bond_atom_site_label_2
_geom_bond_site_symmetry_1
_geom_bond_site_symmetry_2
Fe1 O1 1_555 1_555
O1 C1 1_555 1_555
O2 C1 1_555 1_555
O3 Fe1 1_555 1_555
H1 O3 1_555 1_555
C1 C2 1_555 1_555
C2 C3 1_555 1_555
C3 H3 1_555 1_555
C4 C2 1_555 1_555
H4 C4 1_555 1_555
C5 C4 1_555 1_555
C6 C5 1_555 1_555
C7 C6 1_555 1_555
C8 C7 1_555 1_555
H5 C8 1_555 1_555
C9 C8 1_555 1_555
H6 C9 1_555 1_555
Fe1C Fe1H 1_555 1_555
Fe1U Fe1Z 1_555 1_555
Fe1R Fe1IA 1_555 1_555
Fe1Q Fe1 1_555 1_555
Fe1M Fe1J 1_555 1_555
Fe1H O2C 1_555 1_555
Fe1Z O2U 1_555 1_555
Fe1IA O2R 1_555 1_555
Fe1J O2M 1_555 1_555
Fe1Y Fe1V 1_555 1_555
Fe1V O2Y 1_555 1_555
Fe1CA Fe1DA 1_555 1_555
Fe1DA O2CA 1_555 1_555
Fe1S Fe1HA 1_555 1_555
Fe1HA O2S 1_555 1_555
Fe1A Fe1P 1_555 1_555
Fe1P O2A 1_555 1_555
Fe1E Fe1F 1_555 1_555
Fe1F O2E 1_555 1_555
O1C Fe1C 1_555 1_555
O1U Fe1U 1_555 1_555
O1R Fe1R 1_555 1_555
O1Q Fe1Q 1_555 1_555
O1M Fe1M 1_555 1_555
O1Y Fe1Y 1_555 1_555
O1CA Fe1CA 1_555 1_555
O1W Fe1 1_555 1_555
O1S Fe1S 1_555 1_555
O1A Fe1A 1_555 1_555
O1E Fe1E 1_555 1_555
O1T Fe1C 1_555 1_555
O1B Fe1U 1_555 1_555
O1E_2 Fe1R 1_555 1_555
O1X Fe1Q 1_555 1_555
O1BA Fe1M 1_555 1_555
O2C C1C 1_555 1_555
O2U C1U 1_555 1_555
O2R C1R 1_555 1_555
O2Q Fe1 1_555 1_555
O2M C1M 1_555 1_555
O2Y C1Y 1_555 1_555
O2CA C1CA 1_555 1_555
O2W Fe1Q 1_555 1_555
O2S C1S 1_555 1_555
O2A C1A 1_555 1_555
O2E C1E 1_555 1_555
O2X Fe1 1_555 1_555
O2H Fe1C 1_555 1_555
O2GA Fe1C 1_555 1_555
O2Z Fe1U 1_555 1_555
O2O Fe1U 1_555 1_555
O2IA Fe1R 1_555 1_555
O2F Fe1R 1_555 1_555
O2J Fe1M 1_555 1_555
O2EA Fe1M 1_555 1_555
O3C Fe1C 1_555 1_555
O3U Fe1U 1_555 1_555
O3R Fe1R 1_555 1_555
O3Q Fe1Q 1_555 1_555
O3M Fe1M 1_555 1_555
H1W O3 1_555 1_555
H1C O3C 1_555 1_555
H1T O3C 1_555 1_555
H1U O3U 1_555 1_555
H1B O3U 1_555 1_555
H1R O3R 1_555 1_555
H1E O3R 1_555 1_555
H1Q O3Q 1_555 1_555
H1X O3Q 1_555 1_555
H1M O3M 1_555 1_555
H1BA O3M 1_555 1_555
C1C O1C 1_555 1_555
C1U O1U 1_555 1_555
C1R O1R 1_555 1_555
C1Q O1Q 1_555 1_555
C1M O1M 1_555 1_555
C1Y O1Y 1_555 1_555
C1CA O1CA 1_555 1_555
C1W O1W 1_555 1_555
C1S O1S 1_555 1_555
C1A O1A 1_555 1_555
C1E O1E 1_555 1_555
C2C C3 1_555 1_555
C2U C1U 1_555 1_555
C2R C1R 1_555 1_555
C2Q C1Q 1_555 1_555
C2M C1M 1_555 1_555
C2Y C1Y 1_555 1_555
C2CA C1CA 1_555 1_555
C2W C1W 1_555 1_555
C2S C1S 1_555 1_555
C2A C1A 1_555 1_555
C2E C1E 1_555 1_555
C3R C2U 1_555 1_555
C3M C2Q 1_555 1_555
C3Y C2Y 1_555 1_555
C3S C2W 1_555 1_555
C3A C2A 1_555 1_555
H3R C3R 1_555 1_555
H3M C3M 1_555 1_555
H3Y C3Y 1_555 1_555
H3S C3S 1_555 1_555
H3A C3A 1_555 1_555
C4C C5 1_555 1_555
C4U C2U 1_555 1_555
C4R C2R 1_555 1_555
C4Q C2Q 1_555 1_555
C4M C2M 1_555 1_555
C4Y C2Y 1_555 1_555
C4CA C2CA 1_555 1_555
C4W C2W 1_555 1_555
C4S C2S 1_555 1_555
C4A C2A 1_555 1_555
C4E C2E 1_555 1_555
H4C C4C 1_555 1_555
H4R C4R 1_555 1_555
H4U C4U 1_555 1_555
H4Q C4Q 1_555 1_555
H4M C4M 1_555 1_555
H4CA C4CA 1_555 1_555
H4Y C4Y 1_555 1_555
H4W C4W 1_555 1_555
H4S C4S 1_555 1_555
H4E C4E 1_555 1_555
H4A C4A 1_555 1_555
C5R C4U 1_555 1_555
C5M C4Q 1_555 1_555
C5Y C4Y 1_555 1_555
C5S C4W 1_555 1_555
C5A C4A 1_555 1_555
C6R C5R 1_555 1_555
C6M C5M 1_555 1_555
C6Y C5Y 1_555 1_555
C6S C5S 1_555 1_555
C6A C5A 1_555 1_555
C7U C7 1_555 1_555
C7R C6R 1_555 1_555
C7C C6 1_555 1_555
C7Q C6M 1_555 1_555
C7Y C6Y 1_555 1_555
C7CA C6Y 1_555 1_555
C7M C6M 1_555 1_555
C7W C6S 1_555 1_555
C7A C6A 1_555 1_555
C7E C6A 1_555 1_555
C7S C6S 1_555 1_555
C8U C7U 1_555 1_555
C8R C7R 1_555 1_555
C8C C7C 1_555 1_555
C8Q C7Q 1_555 1_555
C8Y C7Y 1_555 1_555
C8CA C7CA 1_555 1_555
C8M C7M 1_555 1_555
C8W C7W 1_555 1_555
C8A C7A 1_555 1_555
C8E C7E 1_555 1_555
C8S C7S 1_555 1_555
H5R C8R 1_555 1_555
H5C C8C 1_555 1_555
H5U C8U 1_555 1_555
H5Q C8Q 1_555 1_555
H5CA C8CA 1_555 1_555
H5M C8M 1_555 1_555
H5Y C8Y 1_555 1_555
H5W C8W 1_555 1_555
H5E C8E 1_555 1_555
H5S C8S 1_555 1_555
H5A C8A 1_555 1_555
C9U C9 1_555 1_555
C9R C8R 1_555 1_555
C9C C8C 1_555 1_555
C9Q C8Q 1_555 1_555
C9Y C8Y 1_555 1_555
C9CA C8CA 1_555 1_555
C9M C8M 1_555 1_555
C9W C8W 1_555 1_555
C9A C8A 1_555 1_555
C9E C8E 1_555 1_555
C9S C8S 1_555 1_555
H6R C9R 1_555 1_555
H6C C9C 1_555 1_555
H6U C9U 1_555 1_555
H6Q C9Q 1_555 1_555
H6CA C9CA 1_555 1_555
H6M C9M 1_555 1_555
H6Y C9Y 1_555 1_555
H6W C9W 1_555 1_555
H6E C9E 1_555 1_555
H6S C9S 1_555 1_555
H6A C9A 1_555 1_555
O2 Fe1Q 1_555 1_555
O2Q C1Q 1_555 1_555
O2W C1W 1_555 1_555
C1C C2C 1_555 1_555
C2C C4C 1_555 1_555
C2R C3R 1_555 1_555
C2M C3M 1_555 1_555
C2CA C3Y 1_555 1_555
C2S C3S 1_555 1_555
C2E C3A 1_555 1_555
C4R C5R 1_555 1_555
C4M C5M 1_555 1_555
C4CA C5Y 1_555 1_555
C4S C5S 1_555 1_555
C4E C5A 1_555 1_555
C6R C7U 1_555 1_555
C7R C7C 1_555 1_555
C7Q C7Y 1_555 1_555
C7CA C7M 1_555 1_555
C7W C7A 1_555 1_555
C7E C7S 1_555 1_555
C8U C9U 1_555 1_555
C9R C9C 1_555 1_555
C9Q C9Y 1_555 1_555
C9CA C9M 1_555 1_555
C9W C9A 1_555 1_555
C9E C9S 1_555 1_555

#END
