
#######################################################################
#
#                 Cambridge Crystallographic Data Centre
#                                CCDC 
#
#######################################################################
#
# If this CIF has been generated from an entry in the Cambridge 
# Structural Database, then it will include bibliographic, chemical, 
# crystal, experimental, refinement or atomic coordinate data resulting 
# from the CCDC's data processing and validation procedures.
#
#######################################################################

data_JUCFAQ
_chemical_formula_moiety         '(C48 H18 Na1 O24 Zn4)n'
_symmetry_cell_setting           monoclinic
_symmetry_space_group_name_H-M   'C 2/c'
_symmetry_Int_Tables_number      15
_space_group_name_Hall           '-C 2yc'
loop_
_symmetry_equiv_pos_site_id
_symmetry_equiv_pos_as_xyz
1 x,y,z
2 -x,y,1/2-z
3 1/2+x,1/2+y,z
4 1/2-x,1/2+y,1/2-z
5 -x,-y,-z
6 x,-y,1/2+z
7 1/2-x,1/2-y,-z
8 1/2+x,1/2-y,1/2+z
_cell_length_a                   12.285(5)
_cell_length_b                   31.023(5)
_cell_length_c                   22.686(5)
_cell_angle_alpha                90
_cell_angle_beta                 94.158(5)
_cell_angle_gamma                90
_cell_volume                     8623.28
loop_
_atom_site_label
_atom_site_type_symbol
_atom_site_fract_x
_atom_site_fract_y
_atom_site_fract_z
Zn1 Zn 1.30458(6) 0.86844(2) -0.01144(3)
Zn2 Zn 0.74059(6) 1.08335(2) 0.16072(3)
Na1 Na 1.0000 1.04669(16) 0.2500
C1 C 0.7957(6) 0.93198(19) -0.1136(3)
H1 H 0.8668 0.9384 -0.1223
C2 C 0.7694(5) 0.93080(19) -0.0544(3)
C3 C 0.6641(5) 0.91976(19) -0.0437(2)
H2 H 0.6458 0.9176 -0.0047
C4 C 0.5846(5) 0.91172(19) -0.0885(3)
C5 C 0.6141(6) 0.91443(19) -0.1469(3)
H3 H 0.5613 0.9097 -0.1777
C6 C 0.7168(5) 0.92370(13) -0.1597(3)
C7 C 0.7450(7) 0.92532(15) -0.2226(3)
C8 C 0.4690(6) 0.9014(2) -0.0774(3)
C9 C 0.8750(7) 1.0213(2) 0.1206(3)
C10 C 0.9039(6) 0.98675(19) 0.0783(2)
C11 C 0.8263(5) 0.97132(19) 0.0365(3)
H4 H 0.7541 0.9801 0.0378
C12 C 0.8539(5) 0.94290(19) -0.0076(2)
C13 C 0.9610(5) 0.92875(19) -0.0081(2)
H5 H 0.9798 0.9095 -0.0370
C14 C 1.0108(6) 0.9715(2) 0.0772(3)
H6 H 1.0635 0.9807 0.1059
C15 C 1.0397(5) 0.9429(2) 0.0338(3)
C16 C 1.1527(6) 0.9261(2) 0.0332(3)
C17 C 1.3755(6) 0.8266(2) 0.0965(3)
C18 C 1.3899(5) 0.78647(19) 0.1333(2)
C19 C 1.4517(6) 0.7867(2) 0.1874(3)
H7 H 1.4840 0.8123 0.2009
C20 C 1.3420(5) 0.7490(2) 0.1133(3)
H8 H 1.3014 0.7486 0.0771
C21 C 1.4662(6) 0.75000(19) 0.2214(2)
C22 C 1.4140(6) 0.7126(2) 0.2008(3)
H9 H 1.4196 0.6878 0.2238
C23 C 1.3531(5) 0.7115(2) 0.1464(2)
C24 C 1.3017(5) 0.6703(2) 0.1238(3)
O1 O 0.6796(5) 0.91859(15) -0.26266(18)
O2 O 0.4465(3) 0.89365(14) -0.02408(19)
O3 O 0.3992(4) 0.90172(18) -0.1191(2)
O4 O 0.9482(4) 1.03685(16) 0.1548(2)
O5 O 0.7757(4) 1.03198(14) 0.11980(19)
O6 O 1.2252(4) 0.94012(18) 0.0709(2)
O7 O 1.1719(4) 0.89999(16) -0.0072(2)
O8 O 1.3277(4) 0.82322(13) 0.04694(17)
O9 O 1.2438(4) 0.67204(12) 0.07601(17)
O10 O 1.3210(3) 0.63732(13) 0.15494(17)
O11 O 0.8434(9) 0.9178(4) -0.2332(4)
O12 O 1.4418(10) 0.8598(6) 0.1097(7)
C17A C 1.6245(6) 0.8266(2) 0.4035(3)
C18A C 1.6101(5) 0.78647(19) 0.3667(2)
C19A C 1.5483(6) 0.7867(2) 0.3126(3)
H7A H 1.5160 0.8123 0.2991
C20A C 1.6580(5) 0.7490(2) 0.3867(3)
H8A H 1.6986 0.7486 0.4229
C21A C 1.5338(6) 0.75000(19) 0.2786(2)
C22A C 1.5860(6) 0.7126(2) 0.2992(3)
H9A H 1.5804 0.6878 0.2762
C23A C 1.6469(5) 0.7115(2) 0.3536(2)
C24A C 1.6983(5) 0.6703(2) 0.3762(3)
O8A O 1.6723(4) 0.82322(13) 0.45306(17)
O9A O 1.7562(4) 0.67204(12) 0.42399(17)
O10A O 1.6790(3) 0.63732(13) 0.34506(17)
O12A O 1.5582(10) 0.8598(6) 0.3903(7)
Zn1A Zn 0.69542(6) 0.86844(2) 0.51144(3)
Zn2A Zn 1.25941(6) 1.08335(2) 0.33928(3)
C1A C 1.2043(6) 0.93198(19) 0.6136(3)
H1A H 1.1332 0.9384 0.6223
C2A C 1.2306(5) 0.93080(19) 0.5544(3)
C3A C 1.3359(5) 0.91976(19) 0.5437(2)
H2A H 1.3542 0.9176 0.5047
C4A C 1.4154(5) 0.91172(19) 0.5885(3)
C5A C 1.3859(6) 0.91443(19) 0.6469(3)
H3A H 1.4387 0.9097 0.6777
C6A C 1.2832(5) 0.92370(13) 0.6597(3)
C7A C 1.2550(7) 0.92532(15) 0.7226(3)
C8A C 1.5310(6) 0.9014(2) 0.5774(3)
C9A C 1.1250(7) 1.0213(2) 0.3794(3)
C10A C 1.0961(6) 0.98675(19) 0.4217(2)
C11A C 1.1737(5) 0.97132(19) 0.4635(3)
H4A H 1.2459 0.9801 0.4622
C12A C 1.1461(5) 0.94290(19) 0.5076(2)
C13A C 1.0390(5) 0.92875(19) 0.5081(2)
H5A H 1.0202 0.9095 0.5370
C14A C 0.9892(6) 0.9715(2) 0.4228(3)
H6A H 0.9365 0.9807 0.3941
C15A C 0.9603(5) 0.9429(2) 0.4662(3)
C16A C 0.8473(6) 0.9261(2) 0.4668(3)
O1A O 1.3204(5) 0.91859(15) 0.76266(18)
O2A O 1.5535(3) 0.89365(14) 0.52408(19)
O3A O 1.6008(4) 0.90172(18) 0.6191(2)
O4A O 1.0518(4) 1.03685(16) 0.3452(2)
O5A O 1.2243(4) 1.03198(14) 0.38020(19)
O6A O 0.7748(4) 0.94012(18) 0.4291(2)
O7A O 0.8281(4) 0.89999(16) 0.5072(2)
O11A O 1.1566(9) 0.9178(4) 0.7332(4)
Zn1_2 Zn 0.30458(6) 0.86844(2) -0.01144(3)
Zn1A_2 Zn 1.69542(6) 0.86844(2) 0.51144(3)
Zn1F Zn 1.19542(6) 0.63156(2) 0.01144(3)
Zn1G Zn 1.80458(6) 0.63156(2) 0.48856(3)
Zn2B Zn 1.24059(6) 0.58335(2) 0.16072(3)
Zn2C Zn 1.75941(6) 0.58335(2) 0.33928(3)
Zn2D Zn 0.25941(6) 0.91665(2) -0.16072(3)
Zn2D_2 Zn 1.25941(6) 0.91665(2) 0.83928(3)
Zn2E Zn 0.74059(6) 0.91665(2) -0.33928(3)
Zn2E_2 Zn 1.74059(6) 0.91665(2) 0.66072(3)
Na1D Na 1.0000 0.95331(16) -0.2500
Na1D_2 Na 1.0000 0.95331(16) 0.7500
O1D O 1.3204(5) 1.08141(15) 0.26266(18)
O1E O 0.6796(5) 1.08141(15) 0.23734(18)
O2_2 O 1.4465(3) 0.89365(14) -0.02408(19)
O2A_2 O 0.5535(3) 0.89365(14) 0.52408(19)
O3D O 0.6008(4) 1.09828(18) 0.1191(2)
O3E O 1.3992(4) 1.09828(18) 0.3809(2)
O8A_2 O 0.6723(4) 0.82322(13) 0.45306(17)
O9F O 1.2562(4) 0.82796(12) -0.07601(17)
O9G O 0.7438(4) 0.82796(12) 0.57601(17)
O10B O 0.8210(3) 1.13732(13) 0.15494(17)
O10C O 1.1790(3) 1.13732(13) 0.34506(17)
O11D O 1.1566(9) 1.0822(4) 0.2332(4)
O11E O 0.8434(9) 1.0822(4) 0.2668(4)
loop_
_geom_bond_atom_site_label_1
_geom_bond_atom_site_label_2
_geom_bond_site_symmetry_1
_geom_bond_site_symmetry_2
Zn1 O7 1_555 1_555
Zn2 O5 1_555 1_555
Na1 O4 1_555 1_555
C1 H1 1_555 1_555
C2 C1 1_555 1_555
C3 C2 1_555 1_555
H2 C3 1_555 1_555
C4 C3 1_555 1_555
C5 C4 1_555 1_555
H3 C5 1_555 1_555
C6 C1 1_555 1_555
C7 C6 1_555 1_555
C8 C4 1_555 1_555
C9 C10 1_555 1_555
C10 C11 1_555 1_555
C11 H4 1_555 1_555
C12 C2 1_555 1_555
C13 C12 1_555 1_555
H5 C13 1_555 1_555
C14 C10 1_555 1_555
H6 C14 1_555 1_555
C15 C13 1_555 1_555
C16 C15 1_555 1_555
C17 C18 1_555 1_555
C18 C19 1_555 1_555
C19 H7 1_555 1_555
C20 C18 1_555 1_555
H8 C20 1_555 1_555
C21 C19 1_555 1_555
C22 C21 1_555 1_555
H9 C22 1_555 1_555
C23 C20 1_555 1_555
C24 C23 1_555 1_555
O1 C7 1_555 1_555
O2 C8 1_555 1_555
O3 C8 1_555 1_555
O4 C9 1_555 1_555
O5 C9 1_555 1_555
O6 C16 1_555 1_555
O7 C16 1_555 1_555
O8 Zn1 1_555 1_555
O9 C24 1_555 1_555
O10 C24 1_555 1_555
O11 C7 1_555 1_555
O12 C17 1_555 1_555
C17A C18A 1_555 1_555
C18A C19A 1_555 1_555
C19A H7A 1_555 1_555
C20A C18A 1_555 1_555
H8A C20A 1_555 1_555
C21A C21 1_555 1_555
C22A C21A 1_555 1_555
H9A C22A 1_555 1_555
C23A C20A 1_555 1_555
C24A C23A 1_555 1_555
O8A C17A 1_555 1_555
O9A C24A 1_555 1_555
O10A C24A 1_555 1_555
O12A C17A 1_555 1_555
Zn1A O7A 1_555 1_555
Zn2A O5A 1_555 1_555
C1A H1A 1_555 1_555
C2A C1A 1_555 1_555
C3A C2A 1_555 1_555
H2A C3A 1_555 1_555
C4A C3A 1_555 1_555
C5A C4A 1_555 1_555
H3A C5A 1_555 1_555
C6A C1A 1_555 1_555
C7A C6A 1_555 1_555
C8A C4A 1_555 1_555
C9A C10A 1_555 1_555
C10A C11A 1_555 1_555
C11A H4A 1_555 1_555
C12A C2A 1_555 1_555
C13A C12A 1_555 1_555
H5A C13A 1_555 1_555
C14A C10A 1_555 1_555
H6A C14A 1_555 1_555
C15A C13A 1_555 1_555
C16A C15A 1_555 1_555
O1A C7A 1_555 1_555
O2A C8A 1_555 1_555
O3A C8A 1_555 1_555
O4A Na1 1_555 1_555
O5A C9A 1_555 1_555
O6A C16A 1_555 1_555
O7A C16A 1_555 1_555
O11A C7A 1_555 1_555
Zn1_2 O2 1_555 1_555
Zn1A_2 O8A 1_555 1_555
Zn1F O9 1_555 1_555
Zn1G O9A 1_555 1_555
Zn2B O10 1_555 1_555
Zn2C O10A 1_555 1_555
Zn2D O3 1_555 1_555
Zn2D_2 O1A 1_555 1_555
Zn2E O1 1_555 1_555
Zn2E_2 O3A 1_555 1_555
Na1D O11 1_555 1_555
Na1D_2 O11A 1_555 1_555
O1D Zn2A 1_555 1_555
O1E Zn2 1_555 1_555
O2_2 Zn1 1_555 1_555
O2A_2 Zn1A 1_555 1_555
O3D Zn2 1_555 1_555
O3E Zn2A 1_555 1_555
O8A_2 Zn1A 1_555 1_555
O9F Zn1 1_555 1_555
O9G Zn1A 1_555 1_555
O10B Zn2 1_555 1_555
O10C Zn2A 1_555 1_555
O11D Na1 1_555 1_555
O11E Na1 1_555 1_555
C5 C6 1_555 1_555
C11 C12 1_555 1_555
C14 C15 1_555 1_555
C17 O8 1_555 1_555
C22 C23 1_555 1_555
C19A C21A 1_555 1_555
C22A C23A 1_555 1_555
C5A C6A 1_555 1_555
C9A O4A 1_555 1_555
C11A C12A 1_555 1_555
C14A C15A 1_555 1_555
O2A Zn1A_2 1_555 1_555

#END
