
#######################################################################
#
#                 Cambridge Crystallographic Data Centre
#                                CCDC 
#
#######################################################################
#
# If this CIF has been generated from an entry in the Cambridge 
# Structural Database, then it will include bibliographic, chemical, 
# crystal, experimental, refinement or atomic coordinate data resulting 
# from the CCDC's data processing and validation procedures.
#
#######################################################################

data_JOQZUM
_chemical_formula_moiety         '(C18 H16 Mn4 Mo2 N16 O6)n'
_symmetry_cell_setting           monoclinic
_symmetry_space_group_name_H-M   'C 2/c'
_symmetry_Int_Tables_number      15
_space_group_name_Hall           '-C 2yc'
loop_
_symmetry_equiv_pos_site_id
_symmetry_equiv_pos_as_xyz
1 x,y,z
2 -x,y,1/2-z
3 1/2+x,1/2+y,z
4 1/2-x,1/2+y,1/2-z
5 -x,-y,-z
6 x,-y,1/2+z
7 1/2-x,1/2-y,-z
8 1/2+x,1/2-y,1/2+z
_cell_length_a                   17.0077(12)
_cell_length_b                   21.9812(15)
_cell_length_c                   13.0699(9)
_cell_angle_alpha                90
_cell_angle_beta                 127.521(3)
_cell_angle_gamma                90
_cell_volume                     3875.37
loop_
_atom_site_label
_atom_site_type_symbol
_atom_site_fract_x
_atom_site_fract_y
_atom_site_fract_z
Mo1 Mo 0.5000 -0.01917(2) 0.7500
Mo2 Mo -0.0000 0.12929(2) 0.2500
Mn1 Mn 0.37427(5) 0.17740(3) 0.42916(6)
Mn2 Mn 0.20409(5) -0.06562(3) 0.25638(5)
C1 C 0.3228(6) -0.1699(3) 0.1961(8)
H1 H 0.3566 -0.2084 0.2210
H2 H 0.3664 -0.1385 0.2067
H3 H 0.2653 -0.1717 0.1074
C2 C 0.0751(3) -0.1000(2) -0.0542(4)
C3 C 0.3801(4) -0.0102(2) 0.2503(4)
C4 C -0.0329(3) 0.20845(19) 0.1315(4)
C5 C 0.5438(3) -0.0941(2) 0.6901(4)
C6 C 0.3728(3) -0.0510(2) 0.5653(4)
C7 C 0.4470(3) 0.0579(2) 0.6222(4)
C8 C 0.0789(3) 0.05077(19) 0.2558(4)
C9 C 0.1437(3) 0.1570(2) 0.3114(4)
N1 N 0.5669(4) -0.1325(2) 0.6553(4)
N2 N -0.0550(3) 0.25038(18) 0.0673(4)
O1 O 0.29125(11) -0.15608(7) 0.28029(13)
H4 H 0.2592 -0.1742 0.3216
N3 N 0.12023(11) 0.01030(7) 0.25418(13)
N4 N 0.42133(11) 0.10117(7) 0.55882(13)
O2 O 0.10763(11) -0.13238(7) 0.25929(13)
H5 H 0.0388 -0.1134 0.2239
H6 H 0.1296 -0.1588 0.3388
N5 N 0.22272(11) 0.17035(7) 0.34859(13)
N6 N 0.30517(11) -0.06748(7) 0.46676(13)
N7 N 0.11231(11) -0.08519(7) 0.04964(13)
N8 N 0.31385(11) -0.02320(7) 0.24857(13)
O3 O 0.33202(11) 0.24747(7) 0.27748(13)
H7 H 0.3975 0.2515 0.3251
H8 H 0.3060 0.2677 0.3018
Mn1A Mn -0.37427(5) 0.17740(3) 0.07084(6)
Mn2A Mn -0.20409(5) -0.06562(3) 0.24362(5)
C1A C -0.3228(6) -0.1699(3) 0.3039(8)
H1A H -0.3566 -0.2084 0.2790
H2A H -0.3664 -0.1385 0.2933
H3A H -0.2653 -0.1717 0.3926
C2A C -0.0751(3) -0.1000(2) 0.5542(4)
C3A C -0.3801(4) -0.0102(2) 0.2497(4)
C4A C 0.0329(3) 0.20845(19) 0.3685(4)
C6A C -0.3728(3) -0.0510(2) -0.0653(4)
C7A C -0.4470(3) 0.0579(2) -0.1222(4)
C8A C -0.0789(3) 0.05077(19) 0.2442(4)
C9A C -0.1437(3) 0.1570(2) 0.1886(4)
N2A N 0.0550(3) 0.25038(18) 0.4327(4)
O1A O -0.29125(11) -0.15608(7) 0.21971(13)
H4A H -0.2592 -0.1742 0.1784
N3A N -0.12023(11) 0.01030(7) 0.24582(13)
N4A N -0.42133(11) 0.10117(7) -0.05882(13)
O2A O -0.10763(11) -0.13238(7) 0.24071(13)
H5A H -0.0388 -0.1134 0.2761
H6A H -0.1296 -0.1588 0.1612
N5A N -0.22272(11) 0.17035(7) 0.15141(13)
N6A N -0.30517(11) -0.06748(7) 0.03324(13)
N7A N -0.11231(11) -0.08519(7) 0.45036(13)
N8A N -0.31385(11) -0.02320(7) 0.25143(13)
O3A O -0.33202(11) 0.24747(7) 0.22252(13)
H7A H -0.3975 0.2515 0.1749
H8A H -0.3060 0.2677 0.1982
C5A C 0.4562(3) -0.0941(2) 0.8099(4)
N1A N 0.4331(4) -0.1325(2) 0.8447(4)
Mo1_2 Mo -0.5000 -0.01917(2) -0.2500
Mo1D Mo -0.5000 0.01917(2) 0.2500
Mo1D_2 Mo 0.5000 0.01917(2) 0.2500
Mo2D Mo 0.0000 -0.12929(2) -0.2500
Mo2D_2 Mo -0.0000 -0.12929(2) 0.7500
Mn1D Mn 0.62573(5) -0.17740(3) 0.57084(6)
Mn1E Mn 0.37427(5) -0.17740(3) 0.92916(6)
Mn1F Mn 0.12573(5) 0.32260(3) 0.57084(6)
Mn1G Mn -0.12573(5) 0.32260(3) -0.07084(6)
C2D C -0.0751(3) 0.1000(2) 0.0542(4)
C2E C 0.0751(3) 0.1000(2) 0.4458(4)
C3D C 0.6199(4) 0.0102(2) 0.7497(4)
C3E C 0.3801(4) 0.0102(2) 0.7503(4)
C6A_2 C 0.6272(3) -0.0510(2) 0.9347(4)
C7A_2 C 0.5530(3) 0.0579(2) 0.8778(4)
N1D N 0.4331(4) 0.1325(2) 0.3447(4)
N1E N -0.4331(4) 0.1325(2) 0.1553(4)
N2F N -0.4450(3) 0.24962(18) -0.0673(4)
N2G N 0.4450(3) 0.24962(18) 0.5673(4)
loop_
_geom_bond_atom_site_label_1
_geom_bond_atom_site_label_2
_geom_bond_site_symmetry_1
_geom_bond_site_symmetry_2
Mo1 C5 1_555 1_555
Mo2 C4 1_555 1_555
Mn1 N4 1_555 1_555
Mn2 O1 1_555 1_555
C1 H1 1_555 1_555
H2 C1 1_555 1_555
H3 C1 1_555 1_555
C2 N7 1_555 1_555
C3 N8 1_555 1_555
C4 N2 1_555 1_555
C5 N1 1_555 1_555
C6 Mo1 1_555 1_555
C7 Mo1 1_555 1_555
C8 Mo2 1_555 1_555
C9 Mo2 1_555 1_555
N1 Mn1D 1_555 1_555
N2 Mn1G 1_555 1_555
O1 C1 1_555 1_555
H4 O1 1_555 1_555
N3 Mn2 1_555 1_555
N4 C7 1_555 1_555
O2 Mn2 1_555 1_555
H5 O2 1_555 1_555
H6 O2 1_555 1_555
N5 Mn1 1_555 1_555
N6 Mn2 1_555 1_555
N7 Mn2 1_555 1_555
N8 Mn2 1_555 1_555
O3 Mn1 1_555 1_555
H7 O3 1_555 1_555
H8 O3 1_555 1_555
Mn1A N4A 1_555 1_555
Mn2A O1A 1_555 1_555
C1A H1A 1_555 1_555
H2A C1A 1_555 1_555
H3A C1A 1_555 1_555
C2A N7A 1_555 1_555
C3A N8A 1_555 1_555
C4A Mo2 1_555 1_555
C6A N6A 1_555 1_555
C7A N4A 1_555 1_555
C8A Mo2 1_555 1_555
C9A Mo2 1_555 1_555
N2A C4A 1_555 1_555
O1A C1A 1_555 1_555
H4A O1A 1_555 1_555
N3A Mn2A 1_555 1_555
O2A Mn2A 1_555 1_555
H5A O2A 1_555 1_555
H6A O2A 1_555 1_555
N5A Mn1A 1_555 1_555
N6A Mn2A 1_555 1_555
N7A Mn2A 1_555 1_555
N8A Mn2A 1_555 1_555
O3A Mn1A 1_555 1_555
H7A O3A 1_555 1_555
H8A O3A 1_555 1_555
C5A Mo1 1_555 1_555
N1A C5A 1_555 1_555
Mo1_2 C6A 1_555 1_555
Mo1D C3A 1_555 1_555
Mo1D_2 C3 1_555 1_555
Mo2D C2 1_555 1_555
Mo2D_2 C2A 1_555 1_555
Mn1E N1A 1_555 1_555
Mn1F N2A 1_555 1_555
C2D Mo2 1_555 1_555
C2E Mo2 1_555 1_555
C3D Mo1 1_555 1_555
C3E Mo1 1_555 1_555
C6A_2 Mo1 1_555 1_555
C7A_2 Mo1 1_555 1_555
N1D Mn1 1_555 1_555
N1E Mn1A 1_555 1_555
N2F Mn1A 1_555 1_555
N2G Mn1 1_555 1_555
C6 N6 1_555 1_555
C8 N3 1_555 1_555
C9 N5 1_555 1_555
C7A Mo1_2 1_555 1_555
C8A N3A 1_555 1_555
C9A N5A 1_555 1_555

#END
