
#######################################################################
#
#                 Cambridge Crystallographic Data Centre
#                                CCDC 
#
#######################################################################
#
# If this CIF has been generated from an entry in the Cambridge 
# Structural Database, then it will include bibliographic, chemical, 
# crystal, experimental, refinement or atomic coordinate data resulting 
# from the CCDC's data processing and validation procedures.
#
#######################################################################

data_JORBAV
_chemical_formula_moiety         '(C19 H20 Mn4 N16 O7 W2)n'
_symmetry_cell_setting           monoclinic
_symmetry_space_group_name_H-M   'C 2/c'
_symmetry_Int_Tables_number      15
_space_group_name_Hall           '-C 2yc'
loop_
_symmetry_equiv_pos_site_id
_symmetry_equiv_pos_as_xyz
1 x,y,z
2 -x,y,1/2-z
3 1/2+x,1/2+y,z
4 1/2-x,1/2+y,1/2-z
5 -x,-y,-z
6 x,-y,1/2+z
7 1/2-x,1/2-y,-z
8 1/2+x,1/2-y,1/2+z
_cell_length_a                   17.127(3)
_cell_length_b                   21.794(4)
_cell_length_c                   13.130(3)
_cell_angle_alpha                90
_cell_angle_beta                 127.91(3)
_cell_angle_gamma                90
_cell_volume                     3866.76
loop_
_atom_site_label
_atom_site_type_symbol
_atom_site_fract_x
_atom_site_fract_y
_atom_site_fract_z
W1 W 0.5000 -0.021044(12) 1.2500
W2 W 0.0000 0.129067(11) 0.7500
Mn1 Mn 0.62747(6) 0.17727(3) 1.57184(7)
Mn2 Mn 0.20550(5) -0.06477(3) 0.75565(7)
O1 O 0.3065(3) -0.15403(18) 0.7850(4)
H1 H 0.2787 -0.1715 0.8373
O2 O 0.1099(3) -0.13565(18) 0.7524(4)
H2 H 0.1258 -0.1698 0.7445
H3 H 0.0789 -0.1006 0.7664
O3 O 0.67619(9) 0.24767(6) 1.72414(11)
H4 H 0.6453 0.2666 1.7190
H5 H 0.7255 0.2761 1.7130
N1 N -0.05287(9) 0.25114(6) 0.56755(11)
N2 N 0.12045(9) 0.00891(6) 0.75553(11)
N3 N -0.22237(9) 0.16909(6) 0.64926(11)
N4 N 0.11669(9) -0.08431(6) 0.55077(11)
N5 N 0.57883(9) 0.09988(6) 1.44264(11)
N6 N 0.43139(9) -0.13501(6) 1.34395(11)
N7 N 0.30611(9) -0.06982(6) 0.96582(11)
N8 N 0.31500(9) -0.02141(6) 0.74988(11)
C1 C -0.03203(9) 0.20929(6) 0.63114(11)
C2 C 0.07920(9) 0.05028(6) 0.75606(11)
C3 C -0.14389(9) 0.15678(6) 0.68642(11)
C4 C 0.07614(9) -0.09950(6) 0.44648(11)
C5 C 0.55298(9) 0.05664(6) 1.37898(11)
C6 C 0.45591(9) -0.09638(6) 1.30970(11)
C7 C 0.37310(9) -0.05333(6) 1.06430(11)
C8 C 0.37976(9) -0.00771(6) 0.74963(11)
C9 C 0.32464(9) -0.16750(6) 0.69640(11)
H6 H 0.3643 -0.2039 0.7233
H7 H 0.3592 -0.1338 0.6931
H8 H 0.2629 -0.1739 0.6124
Mn2A Mn -0.20550(5) -0.06477(3) 0.74435(7)
O1A O -0.3065(3) -0.15403(18) 0.7150(4)
H1A H -0.2787 -0.1715 0.6627
O2A O -0.1099(3) -0.13565(18) 0.7476(4)
H2A H -0.1258 -0.1698 0.7555
H3A H -0.0789 -0.1006 0.7336
N1A N 0.05287(9) 0.25114(6) 0.93245(11)
N2A N -0.12045(9) 0.00891(6) 0.74447(11)
N3A N 0.22237(9) 0.16909(6) 0.85074(11)
N4A N -0.11669(9) -0.08431(6) 0.94923(11)
N7A N -0.30611(9) -0.06982(6) 0.53418(11)
N8A N -0.31500(9) -0.02141(6) 0.75012(11)
C1A C 0.03203(9) 0.20929(6) 0.86886(11)
C2A C -0.07920(9) 0.05028(6) 0.74394(11)
C3A C 0.14389(9) 0.15678(6) 0.81358(11)
C4A C -0.07614(9) -0.09950(6) 1.05352(11)
C7A C -0.37310(9) -0.05333(6) 0.43570(11)
C8A C -0.37976(9) -0.00771(6) 0.75037(11)
C9A C -0.32464(9) -0.16750(6) 0.80360(11)
H6A H -0.3643 -0.2039 0.7767
H7A H -0.3592 -0.1338 0.8069
H8A H -0.2629 -0.1739 0.8876
Mn1A Mn 0.37253(6) 0.17727(3) 0.92816(7)
O3A O 0.32381(9) 0.24767(6) 0.77586(11)
H4A H 0.3547 0.2666 0.7810
H5A H 0.2745 0.2761 0.7870
N5A N 0.42117(9) 0.09988(6) 1.05736(11)
C5A C 0.44702(9) 0.05664(6) 1.12102(11)
N6A N 0.56861(9) -0.13501(6) 1.15605(11)
C6A C 0.54409(9) -0.09638(6) 1.19030(11)
W1_2 W -0.5000 -0.021044(12) 0.2500
W1D W -0.5000 0.021044(12) 0.7500
W1D_2 W 0.5000 0.021044(12) 0.7500
W2D W 0.0000 -0.129067(11) 0.2500
W2D_2 W 0.0000 -0.129067(11) 1.2500
Mn1_2 Mn -0.37253(6) 0.17727(3) 0.57184(7)
Mn1D Mn 0.37253(6) -0.17727(3) 1.42816(7)
Mn1E Mn 0.62747(6) -0.17727(3) 1.07184(7)
Mn1F Mn -0.12747(6) 0.32273(3) 0.42816(7)
Mn1G Mn 0.12747(6) 0.32273(3) 1.07184(7)
N1F N 0.55287(9) 0.24886(6) 1.43245(11)
N1G N 0.44713(9) 0.24886(6) 1.06755(11)
N3_2 N 0.77763(9) 0.16909(6) 1.64926(11)
N6D N 0.56861(9) 0.13501(6) 1.65605(11)
N6E N 0.43139(9) 0.13501(6) 0.84395(11)
C4D C -0.07614(9) 0.09950(6) 0.55352(11)
C4E C 0.07614(9) 0.09950(6) 0.94648(11)
C7A_2 C 0.62690(9) -0.05333(6) 1.43570(11)
C8D C 0.62024(9) 0.00771(6) 1.25037(11)
C8E C 0.37976(9) 0.00771(6) 1.24963(11)
O4 O 0.12991(9) 0.08103(6) 0.52189(11)
H9 H 0.1860 0.0658 0.5048
C10 C 0.0896(6) 0.1348(5) 0.4408(8)
H10 H 0.1047 0.1704 0.4930
H11 H 0.0191 0.1305 0.3784
H12 H 0.1180 0.1391 0.3970
loop_
_geom_bond_atom_site_label_1
_geom_bond_atom_site_label_2
_geom_bond_site_symmetry_1
_geom_bond_site_symmetry_2
W1 C5 1_555 1_555
W2 C1 1_555 1_555
Mn1 O3 1_555 1_555
Mn2 O1 1_555 1_555
O1 H1 1_555 1_555
O2 Mn2 1_555 1_555
H2 O2 1_555 1_555
H3 O2 1_555 1_555
O3 H4 1_555 1_555
H5 O3 1_555 1_555
N1 C1 1_555 1_555
N2 Mn2 1_555 1_555
N3 C3 1_555 1_555
N4 Mn2 1_555 1_555
N5 Mn1 1_555 1_555
N6 C6 1_555 1_555
N7 Mn2 1_555 1_555
N8 Mn2 1_555 1_555
C2 W2 1_555 1_555
C3 W2 1_555 1_555
C4 N4 1_555 1_555
C5 N5 1_555 1_555
C6 W1 1_555 1_555
C7 W1 1_555 1_555
C8 N8 1_555 1_555
C9 O1 1_555 1_555
H6 C9 1_555 1_555
H7 C9 1_555 1_555
H8 C9 1_555 1_555
O4 H9 1_555 1_555
C10 O4 1_555 1_555
H10 C10 1_555 1_555
H11 C10 1_555 1_555
H12 C10 1_555 1_555
Mn2A O1A 1_555 1_555
O1A H1A 1_555 1_555
O2A Mn2A 1_555 1_555
H2A O2A 1_555 1_555
H3A O2A 1_555 1_555
N1A C1A 1_555 1_555
N2A Mn2A 1_555 1_555
N3A C3A 1_555 1_555
N4A Mn2A 1_555 1_555
N7A Mn2A 1_555 1_555
N8A Mn2A 1_555 1_555
C1A W2 1_555 1_555
C2A W2 1_555 1_555
C3A W2 1_555 1_555
C4A N4A 1_555 1_555
C7A N7A 1_555 1_555
C8A N8A 1_555 1_555
C9A O1A 1_555 1_555
H6A C9A 1_555 1_555
H7A C9A 1_555 1_555
H8A C9A 1_555 1_555
Mn1A N3A 1_555 1_555
O3A Mn1A 1_555 1_555
H4A O3A 1_555 1_555
H5A O3A 1_555 1_555
N5A Mn1A 1_555 1_555
C5A W1 1_555 1_555
N6A C6A 1_555 1_555
C6A W1 1_555 1_555
W1_2 C7A 1_555 1_555
W1D C8A 1_555 1_555
W1D_2 C8 1_555 1_555
W2D C4 1_555 1_555
W2D_2 C4A 1_555 1_555
Mn1_2 N3 1_555 1_555
Mn1D N6 1_555 1_555
Mn1E N6A 1_555 1_555
Mn1F N1 1_555 1_555
Mn1G N1A 1_555 1_555
N1F Mn1 1_555 1_555
N1G Mn1A 1_555 1_555
N3_2 Mn1 1_555 1_555
N6D Mn1 1_555 1_555
N6E Mn1A 1_555 1_555
C4D W2 1_555 1_555
C4E W2 1_555 1_555
C7A_2 W1 1_555 1_555
C8D W1 1_555 1_555
C8E W1 1_555 1_555
N2 C2 1_555 1_555
N7 C7 1_555 1_555
N2A C2A 1_555 1_555
N5A C5A 1_555 1_555

#END
