
#######################################################################
#
#                 Cambridge Crystallographic Data Centre
#                                CCDC 
#
#######################################################################
#
# If this CIF has been generated from an entry in the Cambridge 
# Structural Database, then it will include bibliographic, chemical, 
# crystal, experimental, refinement or atomic coordinate data resulting 
# from the CCDC's data processing and validation procedures.
#
#######################################################################

data_ERARUM
_chemical_formula_moiety         'C78 H36 O28 Zr12'
_symmetry_cell_setting           cubic
_symmetry_space_group_name_H-M   'F m -3 m'
_symmetry_Int_Tables_number      225
_space_group_name_Hall           '-F 4 2 3'
loop_
_symmetry_equiv_pos_site_id
_symmetry_equiv_pos_as_xyz
1 x,y,z
2 -x,-y,z
3 -x,y,-z
4 x,-y,-z
5 z,x,y
6 z,-x,-y
7 -z,-x,y
8 -z,x,-y
9 y,z,x
10 -y,z,-x
11 y,-z,-x
12 -y,-z,x
13 y,x,-z
14 -y,-x,-z
15 y,-x,z
16 -y,x,z
17 x,z,-y
18 -x,z,y
19 -x,-z,-y
20 x,-z,y
21 z,y,-x
22 z,-y,x
23 -z,y,x
24 -z,-y,-x
25 x,1/2+y,1/2+z
26 -x,1/2-y,1/2+z
27 -x,1/2+y,1/2-z
28 x,1/2-y,1/2-z
29 z,1/2+x,1/2+y
30 z,1/2-x,1/2-y
31 -z,1/2-x,1/2+y
32 -z,1/2+x,1/2-y
33 y,1/2+z,1/2+x
34 -y,1/2+z,1/2-x
35 y,1/2-z,1/2-x
36 -y,1/2-z,1/2+x
37 y,1/2+x,1/2-z
38 -y,1/2-x,1/2-z
39 y,1/2-x,1/2+z
40 -y,1/2+x,1/2+z
41 x,1/2+z,1/2-y
42 -x,1/2+z,1/2+y
43 -x,1/2-z,1/2-y
44 x,1/2-z,1/2+y
45 z,1/2+y,1/2-x
46 z,1/2-y,1/2+x
47 -z,1/2+y,1/2+x
48 -z,1/2-y,1/2-x
49 1/2+x,y,1/2+z
50 1/2-x,-y,1/2+z
51 1/2-x,y,1/2-z
52 1/2+x,-y,1/2-z
53 1/2+z,x,1/2+y
54 1/2+z,-x,1/2-y
55 1/2-z,-x,1/2+y
56 1/2-z,x,1/2-y
57 1/2+y,z,1/2+x
58 1/2-y,z,1/2-x
59 1/2+y,-z,1/2-x
60 1/2-y,-z,1/2+x
61 1/2+y,x,1/2-z
62 1/2-y,-x,1/2-z
63 1/2+y,-x,1/2+z
64 1/2-y,x,1/2+z
65 1/2+x,z,1/2-y
66 1/2-x,z,1/2+y
67 1/2-x,-z,1/2-y
68 1/2+x,-z,1/2+y
69 1/2+z,y,1/2-x
70 1/2+z,-y,1/2+x
71 1/2-z,y,1/2+x
72 1/2-z,-y,1/2-x
73 1/2+x,1/2+y,z
74 1/2-x,1/2-y,z
75 1/2-x,1/2+y,-z
76 1/2+x,1/2-y,-z
77 1/2+z,1/2+x,y
78 1/2+z,1/2-x,-y
79 1/2-z,1/2-x,y
80 1/2-z,1/2+x,-y
81 1/2+y,1/2+z,x
82 1/2-y,1/2+z,-x
83 1/2+y,1/2-z,-x
84 1/2-y,1/2-z,x
85 1/2+y,1/2+x,-z
86 1/2-y,1/2-x,-z
87 1/2+y,1/2-x,z
88 1/2-y,1/2+x,z
89 1/2+x,1/2+z,-y
90 1/2-x,1/2+z,y
91 1/2-x,1/2-z,-y
92 1/2+x,1/2-z,y
93 1/2+z,1/2+y,-x
94 1/2+z,1/2-y,x
95 1/2-z,1/2+y,x
96 1/2-z,1/2-y,-x
97 -x,-y,-z
98 x,y,-z
99 x,-y,z
100 -x,y,z
101 -z,-x,-y
102 -z,x,y
103 z,x,-y
104 z,-x,y
105 -y,-z,-x
106 y,-z,x
107 -y,z,x
108 y,z,-x
109 -y,-x,z
110 y,x,z
111 -y,x,-z
112 y,-x,-z
113 -x,-z,y
114 x,-z,-y
115 x,z,y
116 -x,z,-y
117 -z,-y,x
118 -z,y,-x
119 z,-y,-x
120 z,y,x
121 -x,1/2-y,1/2-z
122 x,1/2+y,1/2-z
123 x,1/2-y,1/2+z
124 -x,1/2+y,1/2+z
125 -z,1/2-x,1/2-y
126 -z,1/2+x,1/2+y
127 z,1/2+x,1/2-y
128 z,1/2-x,1/2+y
129 -y,1/2-z,1/2-x
130 y,1/2-z,1/2+x
131 -y,1/2+z,1/2+x
132 y,1/2+z,1/2-x
133 -y,1/2-x,1/2+z
134 y,1/2+x,1/2+z
135 -y,1/2+x,1/2-z
136 y,1/2-x,1/2-z
137 -x,1/2-z,1/2+y
138 x,1/2-z,1/2-y
139 x,1/2+z,1/2+y
140 -x,1/2+z,1/2-y
141 -z,1/2-y,1/2+x
142 -z,1/2+y,1/2-x
143 z,1/2-y,1/2-x
144 z,1/2+y,1/2+x
145 1/2-x,-y,1/2-z
146 1/2+x,y,1/2-z
147 1/2+x,-y,1/2+z
148 1/2-x,y,1/2+z
149 1/2-z,-x,1/2-y
150 1/2-z,x,1/2+y
151 1/2+z,x,1/2-y
152 1/2+z,-x,1/2+y
153 1/2-y,-z,1/2-x
154 1/2+y,-z,1/2+x
155 1/2-y,z,1/2+x
156 1/2+y,z,1/2-x
157 1/2-y,-x,1/2+z
158 1/2+y,x,1/2+z
159 1/2-y,x,1/2-z
160 1/2+y,-x,1/2-z
161 1/2-x,-z,1/2+y
162 1/2+x,-z,1/2-y
163 1/2+x,z,1/2+y
164 1/2-x,z,1/2-y
165 1/2-z,-y,1/2+x
166 1/2-z,y,1/2-x
167 1/2+z,-y,1/2-x
168 1/2+z,y,1/2+x
169 1/2-x,1/2-y,-z
170 1/2+x,1/2+y,-z
171 1/2+x,1/2-y,z
172 1/2-x,1/2+y,z
173 1/2-z,1/2-x,-y
174 1/2-z,1/2+x,y
175 1/2+z,1/2+x,-y
176 1/2+z,1/2-x,y
177 1/2-y,1/2-z,-x
178 1/2+y,1/2-z,x
179 1/2-y,1/2+z,x
180 1/2+y,1/2+z,-x
181 1/2-y,1/2-x,z
182 1/2+y,1/2+x,z
183 1/2-y,1/2+x,-z
184 1/2+y,1/2-x,-z
185 1/2-x,1/2-z,y
186 1/2+x,1/2-z,-y
187 1/2+x,1/2+z,y
188 1/2-x,1/2+z,-y
189 1/2-z,1/2-y,x
190 1/2-z,1/2+y,-x
191 1/2+z,1/2-y,-x
192 1/2+z,1/2+y,x
_cell_length_a                   38.554(4)
_cell_length_b                   38.554(4)
_cell_length_c                   38.554(4)
_cell_angle_alpha                90
_cell_angle_beta                 90
_cell_angle_gamma                90
_cell_volume                     57307.1
loop_
_atom_site_label
_atom_site_type_symbol
_atom_site_fract_x
_atom_site_fract_y
_atom_site_fract_z
Zr1 Zr 0.5000 0.5000 0.56415(2)
O1 O 0.5000 0.55020(14) 0.59201(13)
O2 O 0.46839(13) 0.46839(13) 0.53161(13)
C1 C 0.5000 0.58048(18) 0.58048(18)
C2 C 0.5000 0.60800(18) 0.60800(18)
C3 C 0.5000 0.6431(3) 0.5978(3)
H1 H 0.5000 0.6495 0.5740
C4 C 0.5000 0.6677(3) 0.6236(4)
H2 H 0.5000 0.6916 0.6174
C5 C 0.5000 0.6586(3) 0.6586(3)
C6 C 0.5000 0.6862(3) 0.6862(3)
C7 C 0.5000 0.7213(4) 0.6769(5)
H3 H 0.5000 0.7273 0.6530
C8 C 0.5000 0.7483(4) 0.7017(5)
C9 C 0.5000 0.7364(3) 0.7364(3)
O1Q O 0.5000 0.59201(13) 0.55020(14)
C3Q C 0.5000 0.5978(3) 0.6431(3)
H1Q H 0.5000 0.5740 0.6495
C4Q C 0.5000 0.6236(4) 0.6677(3)
H2Q H 0.5000 0.6174 0.6916
C7Q C 0.5000 0.6769(5) 0.7213(4)
H3Q H 0.5000 0.6530 0.7273
C8Q C 0.5000 0.7017(5) 0.7483(4)
O1AA O 0.5000 0.94980(14) 0.90799(13)
C1AA C 0.5000 0.91952(18) 0.91952(18)
C2AA C 0.5000 0.89200(18) 0.89200(18)
C3AA C 0.5000 0.8569(3) 0.9022(3)
H1AA H 0.5000 0.8505 0.9260
C4AA C 0.5000 0.8323(3) 0.8764(4)
H2AA H 0.5000 0.8084 0.8826
C5AA C 0.5000 0.8414(3) 0.8414(3)
C6AA C 0.5000 0.8138(3) 0.8138(3)
C7AA C 0.5000 0.7787(4) 0.8231(5)
H3AA H 0.5000 0.7727 0.8470
C8AA C 0.5000 0.7517(4) 0.7983(5)
C9AA C 0.5000 0.7636(3) 0.7636(3)
O1PA O 0.5000 0.90799(13) 0.94980(14)
C3PA C 0.5000 0.9022(3) 0.8569(3)
H1PA H 0.5000 0.9260 0.8505
C4PA C 0.5000 0.8764(4) 0.8323(3)
H2PA H 0.5000 0.8826 0.8084
C7PA C 0.5000 0.8231(5) 0.7787(4)
H3PA H 0.5000 0.8470 0.7727
C8PA C 0.5000 0.7983(5) 0.7517(4)
O1A O 0.5000 0.44980(14) 0.59201(13)
O2A O 0.53161(13) 0.53161(13) 0.53161(13)
C1A C 0.5000 0.41952(18) 0.58048(18)
C2A C 0.5000 0.39200(18) 0.60800(18)
C3A C 0.5000 0.3569(3) 0.5978(3)
H1A H 0.5000 0.3505 0.5740
C4A C 0.5000 0.3323(3) 0.6236(4)
H2A H 0.5000 0.3084 0.6174
C5A C 0.5000 0.3414(3) 0.6586(3)
C6A C 0.5000 0.3138(3) 0.6862(3)
C7A C 0.5000 0.2787(4) 0.6769(5)
H3A H 0.5000 0.2727 0.6530
C8A C 0.5000 0.2517(4) 0.7017(5)
C9A C 0.5000 0.2636(3) 0.7364(3)
O1S O 0.5000 0.40799(13) 0.55020(14)
C3S C 0.5000 0.4022(3) 0.6431(3)
H1S H 0.5000 0.4260 0.6495
C4S C 0.5000 0.3764(4) 0.6677(3)
H2S H 0.5000 0.3826 0.6916
C7S C 0.5000 0.3231(5) 0.7213(4)
H3S H 0.5000 0.3470 0.7273
C8S C 0.5000 0.2983(5) 0.7483(4)
O1Z O 0.5000 0.05020(14) 0.90799(13)
C1Z C 0.5000 0.08048(18) 0.91952(18)
C2Z C 0.5000 0.10800(18) 0.89200(18)
C3Z C 0.5000 0.1431(3) 0.9022(3)
H1Z H 0.5000 0.1495 0.9260
C4Z C 0.5000 0.1677(3) 0.8764(4)
H2Z H 0.5000 0.1916 0.8826
C5Z C 0.5000 0.1586(3) 0.8414(3)
C6Z C 0.5000 0.1862(3) 0.8138(3)
C7Z C 0.5000 0.2213(4) 0.8231(5)
H3Z H 0.5000 0.2273 0.8470
C8Z C 0.5000 0.2483(4) 0.7983(5)
C9Z C 0.5000 0.2364(3) 0.7636(3)
O1NA O 0.5000 0.09201(13) 0.94980(14)
C3NA C 0.5000 0.0978(3) 0.8569(3)
H1NA H 0.5000 0.0740 0.8505
C4NA C 0.5000 0.1236(4) 0.8323(3)
H2NA H 0.5000 0.1174 0.8084
C7NA C 0.5000 0.1769(5) 0.7787(4)
H3NA H 0.5000 0.1530 0.7727
C8NA C 0.5000 0.2017(5) 0.7517(4)
Zr1D Zr 0.56415(2) 0.5000 0.5000
O1D O 0.59201(13) 0.5000 0.55020(14)
O2B O 0.53161(13) 0.46839(13) 0.46839(13)
C1D C 0.58048(18) 0.5000 0.58048(18)
C2D C 0.60800(18) 0.5000 0.60800(18)
C3D C 0.5978(3) 0.5000 0.6431(3)
H1D H 0.5740 0.5000 0.6495
C4D C 0.6236(4) 0.5000 0.6677(3)
H2D H 0.6174 0.5000 0.6916
C5D C 0.6586(3) 0.5000 0.6586(3)
C6D C 0.6862(3) 0.5000 0.6862(3)
C7D C 0.6769(5) 0.5000 0.7213(4)
H3D H 0.6530 0.5000 0.7273
C8D C 0.7017(5) 0.5000 0.7483(4)
C9D C 0.7364(3) 0.5000 0.7364(3)
O1N O 0.55020(14) 0.5000 0.59201(13)
C3N C 0.6431(3) 0.5000 0.5978(3)
H1N H 0.6495 0.5000 0.5740
C4N C 0.6677(3) 0.5000 0.6236(4)
H2N H 0.6916 0.5000 0.6174
C7N C 0.7213(4) 0.5000 0.6769(5)
H3N H 0.7273 0.5000 0.6530
C8N C 0.7483(4) 0.5000 0.7017(5)
O1CB O 0.90799(13) 0.5000 0.94980(14)
C1CB C 0.91952(18) 0.5000 0.91952(18)
C2CB C 0.89200(18) 0.5000 0.89200(18)
C3CB C 0.9022(3) 0.5000 0.8569(3)
H1CB H 0.9260 0.5000 0.8505
C4CB C 0.8764(4) 0.5000 0.8323(3)
H2CB H 0.8826 0.5000 0.8084
C5CB C 0.8414(3) 0.5000 0.8414(3)
C6CB C 0.8138(3) 0.5000 0.8138(3)
C7CB C 0.8231(5) 0.5000 0.7787(4)
H3CB H 0.8470 0.5000 0.7727
C8CB C 0.7983(5) 0.5000 0.7517(4)
C9CB C 0.7636(3) 0.5000 0.7636(3)
O1IB O 0.94980(14) 0.5000 0.90799(13)
C3IB C 0.8569(3) 0.5000 0.9022(3)
H1IB H 0.8505 0.5000 0.9260
C4IB C 0.8323(3) 0.5000 0.8764(4)
H2IB H 0.8084 0.5000 0.8826
C7IB C 0.7787(4) 0.5000 0.8231(5)
H3IB H 0.7727 0.5000 0.8470
C8IB C 0.7517(4) 0.5000 0.7983(5)
Zr1F Zr 0.43585(2) 0.5000 0.5000
O2C O 0.46839(13) 0.53161(13) 0.46839(13)
Zr1B Zr 0.5000 0.5000 0.43585(2)
Zr1H Zr 0.5000 0.56415(2) 0.5000
Zr1J Zr 0.5000 0.43585(2) 0.5000
Zr1Z Zr 0.5000 0.0000 0.93585(2)
Zr1Z_2 Zr 0.5000 1.0000 0.93585(2)
Zr1FA Zr 0.5000 0.06415(2) 1.0000
Zr1HA Zr 0.5000 0.93585(2) 1.0000
Zr1XA Zr 1.0000 0.5000 0.93585(2)
Zr1BB Zr 0.93585(2) 0.5000 1.0000
O1E O 0.59201(13) 0.5000 0.44980(14)
O1F O 0.40799(13) 0.5000 0.55020(14)
O1G O 0.40799(13) 0.5000 0.44980(14)
O1O O 0.44980(14) 0.5000 0.59201(13)
O1T O 0.59201(13) 0.55020(14) 0.5000
O1U O 0.59201(13) 0.44980(14) 0.5000
O1V O 0.40799(13) 0.55020(14) 0.5000
O1W O 0.40799(13) 0.44980(14) 0.5000
O2L O 0.46839(13) 0.46839(13) 0.46839(13)
O2M O 0.53161(13) 0.53161(13) 0.46839(13)
O2N O 0.46839(13) 0.53161(13) 0.53161(13)
O2O O 0.53161(13) 0.46839(13) 0.53161(13)
loop_
_geom_bond_atom_site_label_1
_geom_bond_atom_site_label_2
_geom_bond_site_symmetry_1
_geom_bond_site_symmetry_2
Zr1 O1 1_555 1_555
O1 C1 1_555 1_555
O2 Zr1 1_555 1_555
C1 C2 1_555 1_555
C2 C3 1_555 1_555
C3 H1 1_555 1_555
C4 C3 1_555 1_555
H2 C4 1_555 1_555
C5 C4 1_555 1_555
C6 C5 1_555 1_555
C7 C6 1_555 1_555
H3 C7 1_555 1_555
C8 C7 1_555 1_555
C9 C8 1_555 1_555
O1Q C1 1_555 1_555
C3Q C2 1_555 1_555
H1Q C3Q 1_555 1_555
C4Q C5 1_555 1_555
H2Q C4Q 1_555 1_555
C7Q C6 1_555 1_555
H3Q C7Q 1_555 1_555
C8Q C9 1_555 1_555
O1AA C1AA 1_555 1_555
C1AA C2AA 1_555 1_555
C2AA C3AA 1_555 1_555
C3AA H1AA 1_555 1_555
C4AA C3AA 1_555 1_555
H2AA C4AA 1_555 1_555
C5AA C4AA 1_555 1_555
C6AA C5AA 1_555 1_555
C7AA C6AA 1_555 1_555
H3AA C7AA 1_555 1_555
C8AA C7AA 1_555 1_555
C9AA C9 1_555 1_555
O1PA C1AA 1_555 1_555
C3PA C2AA 1_555 1_555
H1PA C3PA 1_555 1_555
C4PA C5AA 1_555 1_555
H2PA C4PA 1_555 1_555
C7PA C6AA 1_555 1_555
H3PA C7PA 1_555 1_555
C8PA C9AA 1_555 1_555
O1A Zr1 1_555 1_555
O2A Zr1 1_555 1_555
C1A O1A 1_555 1_555
C2A C1A 1_555 1_555
C3A C2A 1_555 1_555
H1A C3A 1_555 1_555
C4A C3A 1_555 1_555
H2A C4A 1_555 1_555
C5A C4A 1_555 1_555
C6A C5A 1_555 1_555
C7A C6A 1_555 1_555
H3A C7A 1_555 1_555
C8A C7A 1_555 1_555
C9A C8A 1_555 1_555
O1S C1A 1_555 1_555
C3S C2A 1_555 1_555
H1S C3S 1_555 1_555
C4S C5A 1_555 1_555
H2S C4S 1_555 1_555
C7S C6A 1_555 1_555
H3S C7S 1_555 1_555
C8S C9A 1_555 1_555
O1Z C1Z 1_555 1_555
C1Z C2Z 1_555 1_555
C2Z C3Z 1_555 1_555
C3Z H1Z 1_555 1_555
C4Z C3Z 1_555 1_555
H2Z C4Z 1_555 1_555
C5Z C4Z 1_555 1_555
C6Z C5Z 1_555 1_555
C7Z C6Z 1_555 1_555
H3Z C7Z 1_555 1_555
C8Z C7Z 1_555 1_555
C9Z C9A 1_555 1_555
O1NA C1Z 1_555 1_555
C3NA C2Z 1_555 1_555
H1NA C3NA 1_555 1_555
C4NA C5Z 1_555 1_555
H2NA C4NA 1_555 1_555
C7NA C6Z 1_555 1_555
H3NA C7NA 1_555 1_555
C8NA C9Z 1_555 1_555
Zr1D O2A 1_555 1_555
O1D Zr1D 1_555 1_555
O2B Zr1D 1_555 1_555
C1D O1D 1_555 1_555
C2D C1D 1_555 1_555
C3D C2D 1_555 1_555
H1D C3D 1_555 1_555
C4D C3D 1_555 1_555
H2D C4D 1_555 1_555
C5D C4D 1_555 1_555
C6D C5D 1_555 1_555
C7D C6D 1_555 1_555
H3D C7D 1_555 1_555
C8D C7D 1_555 1_555
C9D C8D 1_555 1_555
O1N Zr1 1_555 1_555
C3N C2D 1_555 1_555
H1N C3N 1_555 1_555
C4N C5D 1_555 1_555
H2N C4N 1_555 1_555
C7N C6D 1_555 1_555
H3N C7N 1_555 1_555
C8N C9D 1_555 1_555
O1CB C1CB 1_555 1_555
C1CB C2CB 1_555 1_555
C2CB C3CB 1_555 1_555
C3CB H1CB 1_555 1_555
C4CB C3CB 1_555 1_555
H2CB C4CB 1_555 1_555
C5CB C4CB 1_555 1_555
C6CB C5CB 1_555 1_555
C7CB C6CB 1_555 1_555
H3CB C7CB 1_555 1_555
C8CB C7CB 1_555 1_555
C9CB C9D 1_555 1_555
O1IB C1CB 1_555 1_555
C3IB C2CB 1_555 1_555
H1IB C3IB 1_555 1_555
C4IB C5CB 1_555 1_555
H2IB C4IB 1_555 1_555
C7IB C6CB 1_555 1_555
H3IB C7IB 1_555 1_555
C8IB C9CB 1_555 1_555
Zr1F O2 1_555 1_555
O2C Zr1F 1_555 1_555
Zr1B O2B 1_555 1_555
Zr1H O1Q 1_555 1_555
Zr1J O2 1_555 1_555
Zr1Z O1Z 1_555 1_555
Zr1Z_2 O1AA 1_555 1_555
Zr1FA O1NA 1_555 1_555
Zr1HA O1PA 1_555 1_555
Zr1XA O1IB 1_555 1_555
Zr1BB O1CB 1_555 1_555
O1E Zr1D 1_555 1_555
O1F Zr1F 1_555 1_555
O1G Zr1F 1_555 1_555
O1O Zr1 1_555 1_555
O1T Zr1D 1_555 1_555
O1U Zr1D 1_555 1_555
O1V Zr1F 1_555 1_555
O1W Zr1F 1_555 1_555
O2L Zr1F 1_555 1_555
O2M Zr1D 1_555 1_555
O2N Zr1 1_555 1_555
O2O Zr1 1_555 1_555
C3Q C4Q 1_555 1_555
C7Q C8Q 1_555 1_555
C8AA C9AA 1_555 1_555
C3PA C4PA 1_555 1_555
C7PA C8PA 1_555 1_555
O2A Zr1H 1_555 1_555
O1S Zr1J 1_555 1_555
C3S C4S 1_555 1_555
C7S C8S 1_555 1_555
C8Z C9Z 1_555 1_555
C3NA C4NA 1_555 1_555
C7NA C8NA 1_555 1_555
Zr1D O2O 1_555 1_555
O2B Zr1J 1_555 1_555
C1D O1N 1_555 1_555
C3N C4N 1_555 1_555
C7N C8N 1_555 1_555
C8CB C9CB 1_555 1_555
C3IB C4IB 1_555 1_555
C7IB C8IB 1_555 1_555
Zr1F O2N 1_555 1_555
O2C Zr1B 1_555 1_555
O2C Zr1H 1_555 1_555
Zr1B O2L 1_555 1_555
Zr1B O2M 1_555 1_555
Zr1H O2M 1_555 1_555
Zr1H O2N 1_555 1_555
Zr1J O2L 1_555 1_555
Zr1J O2O 1_555 1_555

#END
