
#######################################################################
#
#                 Cambridge Crystallographic Data Centre
#                                CCDC 
#
#######################################################################
#
# If this CIF has been generated from an entry in the Cambridge 
# Structural Database, then it will include bibliographic, chemical, 
# crystal, experimental, refinement or atomic coordinate data resulting 
# from the CCDC's data processing and validation procedures.
#
#######################################################################

data_EBIMEJ
_chemical_formula_moiety         '(C22 H28 Co2 N2 O12)n'
_symmetry_cell_setting           monoclinic
_symmetry_space_group_name_H-M   'P 21/n'
_symmetry_Int_Tables_number      14
_space_group_name_Hall           '-P 2yn'
loop_
_symmetry_equiv_pos_site_id
_symmetry_equiv_pos_as_xyz
1 x,y,z
2 1/2-x,1/2+y,1/2-z
3 -x,-y,-z
4 1/2+x,1/2-y,1/2+z
_cell_length_a                   11.0660(5)
_cell_length_b                   13.8214(6)
_cell_length_c                   16.8387(7)
_cell_angle_alpha                90
_cell_angle_beta                 103.3100(10)
_cell_angle_gamma                90
_cell_volume                     2506.26
loop_
_atom_site_label
_atom_site_type_symbol
_atom_site_fract_x
_atom_site_fract_y
_atom_site_fract_z
Co1 Co 0.05672(4) 0.08925(3) 0.17407(2)
Co2 Co 0.14177(4) -0.00273(3) -0.00506(2)
C1 C -0.3264(3) 0.0580(2) 0.20162(18)
C2 C -0.4487(3) 0.0502(2) 0.15661(17)
H1 H -0.4652 0.0384 0.0995
C3 C -0.5461(3) 0.0596(2) 0.19516(17)
C4 C -0.5218(3) 0.0744(2) 0.27912(17)
H2 H -0.5889 0.0812 0.3052
C5 C -0.3998(3) 0.0791(2) 0.32538(17)
C6 C -0.3033(3) 0.0718(2) 0.28600(18)
H3 H -0.2200 0.0763 0.3168
C7 C -0.3761(3) 0.0907(2) 0.41671(18)
C8 C -0.3464(3) -0.0028(2) 0.46507(17)
C9 C -0.3965(3) -0.0917(2) 0.43588(17)
H4 H -0.4513 -0.0954 0.3835
C10 C -0.3675(3) -0.1759(2) 0.48260(17)
C11 C -0.2900(3) -0.1695(2) 0.56021(17)
H5 H -0.2703 -0.2262 0.5926
C12 C -0.2412(3) -0.0809(2) 0.59054(17)
C13 C -0.2687(3) 0.0017(2) 0.54308(18)
H6 H -0.2344 0.0621 0.5639
C14 C -0.2207(3) 0.0468(2) 0.15981(17)
C15 C -0.6788(3) 0.0527(2) 0.14716(17)
C16 C -0.4161(3) -0.2747(2) 0.45330(17)
C17 C -0.1613(3) -0.0751(2) 0.67564(17)
O1 O -0.11675(19) 0.07870(16) 0.19762(12)
O2 O -0.2449(2) 0.00517(16) 0.09159(13)
O3 O -0.69945(19) -0.00572(15) 0.08752(12)
O4 O -0.75649(19) 0.10505(15) 0.17039(12)
O5 O -0.50855(19) -0.28061(15) 0.39259(12)
O6 O -0.3616(2) -0.34440(15) 0.49286(12)
O7 O -0.11548(19) -0.15402(14) 0.70965(12)
O8 O -0.1438(2) 0.00384(15) 0.71296(12)
O9 O 0.03072(19) -0.00722(17) 0.08246(12)
O10 O 0.1540(2) 0.15584(17) -0.00773(14)
H21 H -0.443(3) 0.123(3) 0.435(2)
H22 H -0.308(3) 0.135(2) 0.4365(18)
H23 H 0.225(4) 0.183(3) 0.005(2)
H24 H 0.120(4) 0.176(3) 0.024(3)
H26 H 0.038(3) -0.059(3) 0.098(2)
Co1_2 Co -0.94328(4) 0.08925(3) 0.17407(2)
Co1A Co -0.55672(4) -0.41075(3) 0.32593(2)
Co1B Co -0.05672(4) -0.08925(3) 0.82593(2)
Co2B Co -0.14177(4) 0.00273(3) 0.00506(2)
Co2_2 Co -0.85823(4) -0.00273(3) -0.00506(2)
Co2C Co -0.35823(4) -0.49727(3) 0.49494(2)
O2B O 0.2449(2) -0.00517(16) -0.09159(13)
O3_2 O 0.30055(19) -0.00572(15) 0.08752(12)
O4_2 O 0.24351(19) 0.10505(15) 0.17039(12)
O5A O 0.00855(19) 0.21939(15) 0.10741(12)
O6C O 0.1384(2) -0.15560(15) -0.00714(12)
O7B O 0.11548(19) 0.15402(14) 0.29035(12)
O8B O 0.1438(2) -0.00384(15) 0.28704(12)
O9B O -0.03072(19) 0.00722(17) -0.08246(12)
H26B H -0.038(3) 0.059(3) -0.098(2)
C18 C -0.0861(4) 0.3117(3) 0.2916(3)
H7 H -0.0728 0.3173 0.2362
H8 H -0.1402 0.3643 0.3015
H9 H -0.1252 0.2493 0.2975
C19 C 0.0242(4) 0.3103(3) 0.4366(2)
H10 H 0.1069 0.3152 0.4730
H11 H -0.0130 0.2479 0.4450
H12 H -0.0285 0.3628 0.4486
N1 N 0.0347(3) 0.3179(2) 0.35140(17)
H19 H 0.0855 0.2691 0.3410
H20 H 0.0718 0.3759 0.3445
C20 C 0.4080(4) 0.2767(3) 0.1304(3)
C21 C 0.5461(4) 0.3249(3) 0.2594(3)
H13 H 0.6283 0.3545 0.2770
H14 H 0.5465 0.2609 0.2845
H15 H 0.4841 0.3660 0.2761
C22 C 0.6070(6) 0.3429(5) 0.1288(4)
H16 H 0.6790 0.3695 0.1678
H17 H 0.5727 0.3921 0.0880
H18 H 0.6327 0.2864 0.1017
N2 N 0.5151(3) 0.3149(3) 0.1709(2)
O11 O 0.3733(3) 0.2645(2) 0.05654(19)
H25 H 0.354(4) 0.256(3) 0.169(3)
O12 O 0.3265(3) -0.1398(2) 0.26734(18)
loop_
_geom_bond_atom_site_label_1
_geom_bond_atom_site_label_2
_geom_bond_site_symmetry_1
_geom_bond_site_symmetry_2
Co1 O1 1_555 1_555
Co2 O9 1_555 1_555
C1 C2 1_555 1_555
C2 H1 1_555 1_555
C3 C2 1_555 1_555
C4 C3 1_555 1_555
H2 C4 1_555 1_555
C5 C4 1_555 1_555
C6 C1 1_555 1_555
H3 C6 1_555 1_555
C7 C5 1_555 1_555
C8 C7 1_555 1_555
C9 C8 1_555 1_555
H4 C9 1_555 1_555
C10 C9 1_555 1_555
C11 C10 1_555 1_555
H5 C11 1_555 1_555
C12 C11 1_555 1_555
C13 C8 1_555 1_555
H6 C13 1_555 1_555
C14 C1 1_555 1_555
C15 C3 1_555 1_555
C16 C10 1_555 1_555
C17 C12 1_555 1_555
C18 H7 1_555 1_555
H8 C18 1_555 1_555
H9 C18 1_555 1_555
C19 H10 1_555 1_555
H11 C19 1_555 1_555
H12 C19 1_555 1_555
C20 N2 1_555 1_555
C21 H13 1_555 1_555
H14 C21 1_555 1_555
H15 C21 1_555 1_555
C22 H16 1_555 1_555
H17 C22 1_555 1_555
H18 C22 1_555 1_555
N1 C18 1_555 1_555
H19 N1 1_555 1_555
H20 N1 1_555 1_555
N2 C21 1_555 1_555
O1 C14 1_555 1_555
O2 C14 1_555 1_555
O3 C15 1_555 1_555
O4 C15 1_555 1_555
O5 C16 1_555 1_555
O6 C16 1_555 1_555
O7 C17 1_555 1_555
O8 C17 1_555 1_555
O9 Co1 1_555 1_555
O10 Co2 1_555 1_555
O11 C20 1_555 1_555
H21 C7 1_555 1_555
H22 C7 1_555 1_555
H23 O10 1_555 1_555
H24 O10 1_555 1_555
H25 C20 1_555 1_555
H26 O9 1_555 1_555
Co1_2 O4 1_555 1_555
Co1A O5 1_555 1_555
Co1B O7 1_555 1_555
Co2B O2 1_555 1_555
Co2_2 O3 1_555 1_555
Co2C O6 1_555 1_555
O2B Co2 1_555 1_555
O3_2 Co2 1_555 1_555
O4_2 Co1 1_555 1_555
O5A Co1 1_555 1_555
O6C Co2 1_555 1_555
O7B Co1 1_555 1_555
O8B Co1 1_555 1_555
O9B Co2 1_555 1_555
H26B O9B 1_555 1_555
C5 C6 1_555 1_555
C12 C13 1_555 1_555
C19 N1 1_555 1_555
C22 N2 1_555 1_555
O8 Co1B 1_555 1_555
O9 Co2B 1_555 1_555
Co2B O9B 1_555 1_555

#END
