
#######################################################################
#
#                 Cambridge Crystallographic Data Centre
#                                CCDC 
#
#######################################################################
#
# If this CIF has been generated from an entry in the Cambridge 
# Structural Database, then it will include bibliographic, chemical, 
# crystal, experimental, refinement or atomic coordinate data resulting 
# from the CCDC's data processing and validation procedures.
#
#######################################################################

data_HADPOU
_chemical_formula_moiety         'C8 H4 F2 Fe5 N10 O1 Pt1'
_symmetry_cell_setting           monoclinic
_symmetry_space_group_name_H-M   'P 2/m'
_symmetry_Int_Tables_number      10
_space_group_name_Hall           '-P 2y'
loop_
_symmetry_equiv_pos_site_id
_symmetry_equiv_pos_as_xyz
1 x,y,z
2 -x,y,-z
3 -x,-y,-z
4 x,-y,z
_cell_length_a                   7.2782(3)
_cell_length_b                   7.5613(2)
_cell_length_c                   7.4820(4)
_cell_angle_alpha                90
_cell_angle_beta                 101.494(5)
_cell_angle_gamma                90
_cell_volume                     403.497
loop_
_atom_site_label
_atom_site_type_symbol
_atom_site_fract_x
_atom_site_fract_y
_atom_site_fract_z
O1 O 0.356(7) 0.065(5) 0.455(5)
Pt1 Pt 0.0000 0.0000 0.0000
Fe1 Fe 0.5000 0.5000 0.0000
N1 N 0.5046(12) 0.5000 0.2915(12)
N2 N 0.2903(7) 0.2994(7) -0.0281(9)
C1 C 0.343(2) 0.5000 0.377(2)
H1 H 0.2266 0.5000 0.2989
C2 C 0.658(2) 0.5000 0.442(2)
C3 C 0.1847(7) 0.1876(7) -0.0190(9)
F1 F 0.848(6) 0.5000 0.403(4)
N1A N 0.4954(12) 0.5000 0.7085(12)
C1A C 0.657(2) 0.5000 0.623(2)
H1A H 0.7734 0.5000 0.7011
C2A C 0.342(2) 0.5000 0.558(2)
F1A F 0.152(6) 0.5000 0.597(4)
N2A N -0.2903(7) 0.2994(7) 0.0281(9)
C3A C -0.1847(7) 0.1876(7) 0.0190(9)
N2B N -0.2903(7) -0.2994(7) 0.0281(9)
C3B C -0.1847(7) -0.1876(7) 0.0190(9)
N2C N 0.2903(7) -0.2994(7) -0.0281(9)
C3C C 0.1847(7) -0.1876(7) -0.0190(9)
Fe1_2 Fe -0.5000 -0.5000 0.0000
Fe1_3 Fe -0.5000 0.5000 0.0000
Fe1_4 Fe 0.5000 -0.5000 0.0000
Fe1_5 Fe 0.5000 0.5000 1.0000
N1A_2 N 0.4954(12) 0.5000 -0.2915(12)
N2A_2 N 0.7097(7) 0.2994(7) 0.0281(9)
N2B_2 N 0.7097(7) 0.7006(7) 0.0281(9)
N2C_2 N 0.2903(7) 0.7006(7) -0.0281(9)
loop_
_geom_bond_atom_site_label_1
_geom_bond_atom_site_label_2
_geom_bond_site_symmetry_1
_geom_bond_site_symmetry_2
Pt1 C3 1_555 1_555
Fe1 N1 1_555 1_555
N1 C1 1_555 1_555
N2 Fe1 1_555 1_555
C1 H1 1_555 1_555
C2 N1 1_555 1_555
C3 N2 1_555 1_555
F1 C2 1_555 1_555
N1A C1A 1_555 1_555
C1A C2 1_555 1_555
H1A C1A 1_555 1_555
C2A C1 1_555 1_555
F1A C2A 1_555 1_555
N2A C3A 1_555 1_555
C3A Pt1 1_555 1_555
N2B C3B 1_555 1_555
C3B Pt1 1_555 1_555
N2C C3C 1_555 1_555
C3C Pt1 1_555 1_555
Fe1_2 N2B 1_555 1_555
Fe1_3 N2A 1_555 1_555
Fe1_4 N2C 1_555 1_555
Fe1_5 N1A 1_555 1_555
N1A_2 Fe1 1_555 1_555
N2A_2 Fe1 1_555 1_555
N2B_2 Fe1 1_555 1_555
N2C_2 Fe1 1_555 1_555
N1A C2A 1_555 1_555

#END
