
#######################################################################
#
#                 Cambridge Crystallographic Data Centre
#                                CCDC 
#
#######################################################################
#
# If this CIF has been generated from an entry in the Cambridge 
# Structural Database, then it will include bibliographic, chemical, 
# crystal, experimental, refinement or atomic coordinate data resulting 
# from the CCDC's data processing and validation procedures.
#
#######################################################################

data_UFEXIN
_chemical_formula_moiety         '(C30 H16 Cu3 Ho6 N12 O31)n'
_symmetry_cell_setting           rhombohedral
_symmetry_space_group_name_H-M   'R -3'
_symmetry_Int_Tables_number      148
_space_group_name_Hall           '-R 3'
loop_
_symmetry_equiv_pos_site_id
_symmetry_equiv_pos_as_xyz
1 x,y,z
2 -y,x-y,z
3 -x+y,-x,z
4 2/3+x,1/3+y,1/3+z
5 2/3-y,1/3+x-y,1/3+z
6 2/3-x+y,1/3-x,1/3+z
7 1/3+x,2/3+y,2/3+z
8 1/3-y,2/3+x-y,2/3+z
9 1/3-x+y,2/3-x,2/3+z
10 -x,-y,-z
11 y,-x+y,-z
12 x-y,x,-z
13 1/3-x,2/3-y,2/3-z
14 1/3+y,2/3-x+y,2/3-z
15 1/3+x-y,2/3+x,2/3-z
16 2/3-x,1/3-y,1/3-z
17 2/3+y,1/3-x+y,1/3-z
18 2/3+x-y,1/3+x,1/3-z
_cell_length_a                   27.3601(8)
_cell_length_b                   27.3601(8)
_cell_length_c                   6.9815(4)
_cell_angle_alpha                90
_cell_angle_beta                 90
_cell_angle_gamma                120.00
_cell_volume                     4526
loop_
_atom_site_label
_atom_site_type_symbol
_atom_site_fract_x
_atom_site_fract_y
_atom_site_fract_z
Ho1 Ho 0.413866(9) 0.674776(9) 0.44994(3)
Cu1 Cu 0.6667 0.8333 0.3333
C1 C 0.5051(2) 0.7676(2) 0.1230(8)
C2 C 0.5548(2) 0.7839(3) 0.2303(8)
C3 C 0.6096(3) 0.8427(3) -0.0167(11)
H1 H 0.6448 0.8674 -0.0684
C4 C 0.5611(3) 0.8283(3) -0.1191(10)
H2 H 0.5641 0.8443 -0.2390
C5 C 0.5570(2) 0.7640(3) 0.4265(9)
O1 O 0.45446(15) 0.73165(16) 0.1750(5)
O3 O 0.51270(17) 0.73094(19) 0.5113(6)
O6 O 0.60550(19) 0.7823(3) 0.4997(7)
O7 O 0.3333 0.6667 0.3465(14)
O8 O 0.34098(14) 0.58382(15) 0.5531(5)
O9 O 0.3333 0.6667 0.6667
N1 N 0.51006(19) 0.7920(2) -0.0512(7)
N2 N 0.6053(2) 0.8208(3) 0.1569(8)
Ho1L Ho 0.919467(9) 0.991891(9) 0.21673(3)
Ho1Q Ho 0.405757(13) 0.747199(9) -0.11661(3)
Ho1E Ho 0.927577(13) 0.919467(9) 0.78327(3)
Ho1P Ho 0.341443(9) 0.594243(13) -0.11661(3)
Ho1D Ho 0.991891(9) 1.072423(13) 0.78327(3)
Ho1A Ho 0.325224(9) 0.739090(13) 0.44994(3)
Ho1B Ho 0.260910(13) 0.586134(9) 0.44994(3)
Ho1P_2 Ho 0.341443(9) 0.594243(13) 0.88339(3)
Ho1Q_2 Ho 0.405757(13) 0.747199(9) 0.88339(3)
Ho1O Ho 0.252801(9) 0.658557(9) 0.88339(3)
Ho1M Ho 1.008109(9) 0.927577(13) 0.21673(3)
Ho1N Ho 1.072423(13) 1.080533(9) 0.21673(3)
Ho1D_2 Ho 0.991891(9) 1.072423(13) -0.21673(3)
Ho1E_2 Ho 0.927577(13) 0.919467(9) -0.21673(3)
Ho1O_2 Ho 0.252801(9) 0.658557(9) -0.11661(3)
Ho1C Ho 1.080533(9) 1.008109(9) 0.78327(3)
Cu1P Cu 0.5000 0.4999 0.0000
Cu1D Cu 0.8334 1.1667 0.6666
Cu1Q Cu 0.5001 1.0000 0.0000
Cu1E Cu 0.8333 0.6666 0.6666
C1L C 0.8282(2) 0.8991(2) 0.5437(8)
C1P C 0.4343(2) 0.5958(3) 0.2103(8)
C1D C 0.8991(2) 1.0708(3) 0.4563(8)
C1Q C 0.4042(3) 0.8384(2) 0.2103(8)
C1E C 0.9292(3) 0.8282(2) 0.4563(8)
C2L C 0.7785(2) 0.8828(3) 0.4364(8)
C2P C 0.4506(3) 0.5624(4) 0.1030(8)
C2D C 0.8828(3) 1.1042(4) 0.5636(8)
C2Q C 0.4376(4) 0.8881(2) 0.1030(8)
C2E C 0.8958(4) 0.7785(2) 0.5636(8)
C3L C 0.7237(3) 0.8240(3) 0.6834(11)
C3P C 0.5094(3) 0.5664(4) 0.3500(11)
C3D C 0.8240(3) 1.1002(4) 0.3166(11)
C3Q C 0.4336(4) 0.9429(3) 0.3500(11)
C3E C 0.8998(4) 0.7237(3) 0.3166(11)
H1L H 0.6885 0.7993 0.7351
H1P H 0.5341 0.5559 0.4017
H1D H 0.7993 1.1107 0.2649
H1Q H 0.4441 0.9781 0.4017
H1E H 0.8893 0.6885 0.2649
C4L C 0.7722(3) 0.8384(3) 0.7858(10)
C4P C 0.4950(3) 0.6005(4) 0.4524(10)
C4D C 0.8384(3) 1.0661(4) 0.2142(10)
C4Q C 0.3995(4) 0.8944(3) 0.4524(10)
C4E C 0.9339(4) 0.7722(3) 0.2142(10)
H2L H 0.7692 0.8224 0.9057
H2P H 0.5110 0.6135 0.5723
H2D H 0.8224 1.0531 0.0943
H2Q H 0.3865 0.8974 0.5723
H2E H 0.9469 0.7692 0.0943
C5L C 0.7763(2) 0.9027(3) 0.2402(9)
C5P C 0.4307(3) 0.5403(4) -0.0932(9)
C5D C 0.9027(3) 1.1263(4) 0.7598(9)
C5Q C 0.4597(4) 0.8903(2) -0.0932(9)
C5E C 0.8737(4) 0.7763(2) 0.7598(9)
O1L O 0.87887(15) 0.93502(16) 0.4917(5)
O1P O 0.39832(16) 0.61052(22) 0.1583(5)
O1D O 0.93502(16) 1.05614(22) 0.5083(5)
O1Q O 0.38948(22) 0.78779(15) 0.1583(5)
O1E O 0.94386(22) 0.87887(15) 0.5083(5)
O1B O 0.27719(22) 0.54554(15) 0.1750(5)
O1N O 1.05614(22) 1.12113(15) 0.4917(5)
O3L O 0.82063(17) 0.93573(19) 0.1554(6)
O3P O 0.39761(19) 0.55157(25) -0.1780(6)
O3D O 0.93573(19) 1.11509(25) 0.8446(6)
O3Q O 0.44843(25) 0.84603(17) -0.1780(6)
O3E O 0.88491(25) 0.82063(17) 0.8446(6)
O6L O 0.72783(19) 0.8844(3) 0.1670(7)
O6P O 0.4490(3) 0.51013(36) -0.1664(7)
O6D O 0.8844(3) 1.15653(36) 0.8330(7)
O6Q O 0.48987(36) 0.93883(19) -0.1664(7)
O6E O 0.84347(36) 0.72783(19) 0.8330(7)
O6G O 0.5510(3) 0.48987(36) 0.1664(7)
O6J O 0.7823(3) 1.17680(36) 0.5003(7)
O7L O 1.0000 1.0000 0.3202(14)
O7Q O 0.3333 0.6666 -0.0132(14)
O7E O 1.0001 1.0000 0.6798(14)
O8A O 0.41618(15) 0.75716(21) 0.5531(5)
O8Q O 0.42383(21) 0.67431(14) 0.7802(5)
O8L O 0.99235(14) 1.08285(15) 0.1136(5)
O8M O 0.91715(15) 0.90951(21) 0.1136(5)
O8E O 0.90951(21) 0.99235(14) -0.1136(5)
O8A_2 O 0.41618(15) 0.75716(21) -0.4469(5)
O8Q_2 O 0.42383(21) 0.67431(14) -0.2198(5)
O8O O 0.32569(14) 0.74951(15) -0.2198(5)
O8C O 1.00765(14) 0.91715(15) 0.8864(5)
O8E_2 O 0.90951(21) 0.99235(14) 0.8864(5)
O8M_2 O 0.91715(15) 0.90951(21) 1.1136(5)
O8_2 O 0.34098(14) 0.58382(15) -0.4469(5)
O8P O 0.25049(15) 0.57617(21) -0.2198(5)
O8D O 1.08285(15) 1.09049(21) 0.8864(5)
O8L_2 O 0.99235(14) 1.08285(15) 1.1136(5)
O9C O 1.0000 1.0000 0.0000
O9_2 O 0.3333 0.6667 -0.3333
O9C_2 O 1.0000 1.0000 1.0000
N1L N 0.82327(19) 0.8747(2) 0.7179(7)
N1P N 0.4587(2) 0.61527(28) 0.3845(7)
N1D N 0.8747(2) 1.05139(28) 0.2821(7)
N1Q N 0.38473(28) 0.84339(19) 0.3845(7)
N1E N 0.94861(28) 0.82327(19) 0.2821(7)
N1B N 0.28194(28) 0.48994(19) -0.0512(7)
N1N N 1.05139(28) 1.17673(19) 0.7179(7)
N2L N 0.7280(2) 0.8459(3) 0.5098(8)
N2P N 0.4875(3) 0.5488(4) 0.1764(8)
N2D N 0.8459(3) 1.1178(4) 0.4902(8)
N2Q N 0.4512(4) 0.9386(2) 0.1764(8)
N2E N 0.8822(4) 0.7280(2) 0.4902(8)
N2G N 0.5125(3) 0.4512(4) -0.1764(8)
N2J N 0.8208(3) 1.2155(4) 0.8431(8)
O2 O 0.5371(4) 0.6874(4) 0.8670(13)
H3 H 0.555(5) 0.715(4) 0.787(16)
H4 H 0.565(4) 0.690(6) 0.931(17)
O4 O 0.6592(6) 0.7069(7) 0.167(3)
loop_
_geom_bond_atom_site_label_1
_geom_bond_atom_site_label_2
_geom_bond_site_symmetry_1
_geom_bond_site_symmetry_2
Ho1 O1 1_555 1_555
Cu1 O6 1_555 1_555
C1 C2 1_555 1_555
C2 C5 1_555 1_555
C3 H1 1_555 1_555
C4 C3 1_555 1_555
H2 C4 1_555 1_555
C5 O3 1_555 1_555
O1 C1 1_555 1_555
O2 H3 1_555 1_555
H4 O2 1_555 1_555
O3 Ho1 1_555 1_555
O6 C5 1_555 1_555
O7 Ho1 1_555 1_555
O8 Ho1 1_555 1_555
O9 Ho1 1_555 1_555
N1 C1 1_555 1_555
N2 Cu1 1_555 1_555
Ho1L O1L 1_555 1_555
Ho1Q O1 1_555 1_555
Ho1E O1L 1_555 1_555
Ho1P O1P 1_555 1_555
Ho1D O1D 1_555 1_555
Ho1A O7 1_555 1_555
Ho1B O7 1_555 1_555
Ho1P_2 O8 1_555 1_555
Ho1Q_2 O9 1_555 1_555
Ho1O O9 1_555 1_555
Ho1M O1E 1_555 1_555
Ho1N O1N 1_555 1_555
Ho1D_2 O8L 1_555 1_555
Ho1E_2 O8M 1_555 1_555
Ho1O_2 O7Q 1_555 1_555
Ho1C O7E 1_555 1_555
Cu1P O6P 1_555 1_555
Cu1D O6D 1_555 1_555
Cu1Q O6Q 1_555 1_555
Cu1E O6E 1_555 1_555
C1L C2L 1_555 1_555
C1P C2P 1_555 1_555
C1D C2D 1_555 1_555
C1Q C2Q 1_555 1_555
C1E C2E 1_555 1_555
C2L C5L 1_555 1_555
C2P C5P 1_555 1_555
C2D C5D 1_555 1_555
C2Q C5Q 1_555 1_555
C2E C5E 1_555 1_555
C3L H1L 1_555 1_555
C3P H1P 1_555 1_555
C3D H1D 1_555 1_555
C3Q H1Q 1_555 1_555
C3E H1E 1_555 1_555
C4L C3L 1_555 1_555
C4P C3P 1_555 1_555
C4D C3D 1_555 1_555
C4Q C3Q 1_555 1_555
C4E C3E 1_555 1_555
H2L C4L 1_555 1_555
H2P C4P 1_555 1_555
H2D C4D 1_555 1_555
H2Q C4Q 1_555 1_555
H2E C4E 1_555 1_555
C5L O3L 1_555 1_555
C5P O3P 1_555 1_555
C5D O3D 1_555 1_555
C5Q O3Q 1_555 1_555
C5E O3E 1_555 1_555
O1L C1L 1_555 1_555
O1P Ho1 1_555 1_555
O1D Ho1L 1_555 1_555
O1Q Ho1Q 1_555 1_555
O1E Ho1E 1_555 1_555
O1B Ho1P 1_555 1_555
O1N Ho1D 1_555 1_555
O3L Ho1L 1_555 1_555
O3P Ho1P 1_555 1_555
O3D Ho1D 1_555 1_555
O3Q Ho1Q 1_555 1_555
O3E Ho1E 1_555 1_555
O6L Cu1 1_555 1_555
O6P C5P 1_555 1_555
O6D C5D 1_555 1_555
O6Q C5Q 1_555 1_555
O6E C5E 1_555 1_555
O6G Cu1P 1_555 1_555
O6J Cu1D 1_555 1_555
O7L Ho1L 1_555 1_555
O7Q Ho1Q 1_555 1_555
O7E Ho1E 1_555 1_555
O8A Ho1 1_555 1_555
O8Q Ho1 1_555 1_555
O8L Ho1L 1_555 1_555
O8M Ho1L 1_555 1_555
O8E Ho1L 1_555 1_555
O8A_2 Ho1Q 1_555 1_555
O8Q_2 Ho1Q 1_555 1_555
O8O Ho1Q 1_555 1_555
O8C Ho1E 1_555 1_555
O8E_2 Ho1E 1_555 1_555
O8M_2 Ho1E 1_555 1_555
O8_2 Ho1P 1_555 1_555
O8P Ho1P 1_555 1_555
O8D Ho1D 1_555 1_555
O8L_2 Ho1D 1_555 1_555
O9C Ho1L 1_555 1_555
O9_2 Ho1Q 1_555 1_555
O9C_2 Ho1E 1_555 1_555
N1L Ho1E 1_555 1_555
N1P Ho1 1_555 1_555
N1D Ho1L 1_555 1_555
N1Q Ho1A 1_555 1_555
N1E Ho1M 1_555 1_555
N1B Ho1P 1_555 1_555
N1N Ho1D 1_555 1_555
N2L Cu1 1_555 1_555
N2P Cu1P 1_555 1_555
N2D Cu1D 1_555 1_555
N2Q Cu1Q 1_555 1_555
N2E Cu1E 1_555 1_555
N2G Cu1P 1_555 1_555
N2J Cu1D 1_555 1_555
C2 N2 1_555 1_555
C3 N2 1_555 1_555
C4 N1 1_555 1_555
O8 Ho1B 1_555 1_555
O9 Ho1A 1_555 1_555
O9 Ho1B 1_555 1_555
O9 Ho1P_2 1_555 1_555
N1 Ho1Q 1_555 1_555
Ho1P O7Q 1_555 1_555
Ho1P O8Q_2 1_555 1_555
Ho1P O9_2 1_555 1_555
Ho1D O7E 1_555 1_555
Ho1D O8E_2 1_555 1_555
Ho1D O9C_2 1_555 1_555
Ho1A O1Q 1_555 1_555
Ho1A O8A 1_555 1_555
Ho1B O1B 1_555 1_555
Ho1P_2 O8Q 1_555 1_555
Ho1Q_2 O8A 1_555 1_555
Ho1Q_2 O8Q 1_555 1_555
Ho1M O7L 1_555 1_555
Ho1M O8M 1_555 1_555
Ho1M O9C 1_555 1_555
Ho1N O7L 1_555 1_555
Ho1N O8L 1_555 1_555
Ho1N O9C 1_555 1_555
Ho1D_2 O8E 1_555 1_555
Ho1D_2 O9C 1_555 1_555
Ho1E_2 O8E 1_555 1_555
Ho1E_2 O9C 1_555 1_555
Ho1O_2 O8O 1_555 1_555
Ho1O_2 O8P 1_555 1_555
Ho1O_2 O9_2 1_555 1_555
Ho1C O8C 1_555 1_555
Ho1C O8D 1_555 1_555
Ho1C O9C_2 1_555 1_555
C1L N1L 1_555 1_555
C1P O1P 1_555 1_555
C1P N1P 1_555 1_555
C1D O1D 1_555 1_555
C1D N1D 1_555 1_555
C1Q O1Q 1_555 1_555
C1Q N1Q 1_555 1_555
C1E O1E 1_555 1_555
C1E N1E 1_555 1_555
C2L N2L 1_555 1_555
C2P N2P 1_555 1_555
C2D N2D 1_555 1_555
C2Q N2Q 1_555 1_555
C2E N2E 1_555 1_555
C3L N2L 1_555 1_555
C3P N2P 1_555 1_555
C3D N2D 1_555 1_555
C3Q N2Q 1_555 1_555
C3E N2E 1_555 1_555
C4L N1L 1_555 1_555
C4P N1P 1_555 1_555
C4D N1D 1_555 1_555
C4Q N1Q 1_555 1_555
C4E N1E 1_555 1_555
C5L O6L 1_555 1_555

#END
