
#######################################################################
#
#                 Cambridge Crystallographic Data Centre
#                                CCDC 
#
#######################################################################
#
# If this CIF has been generated from an entry in the Cambridge 
# Structural Database, then it will include bibliographic, chemical, 
# crystal, experimental, refinement or atomic coordinate data resulting 
# from the CCDC's data processing and validation procedures.
#
#######################################################################

data_OQOXAV
_chemical_formula_moiety         '(C4 H16 F5 N22 Zn4 1+)n'
_symmetry_cell_setting           monoclinic
_symmetry_space_group_name_H-M   'P 21/c'
_symmetry_Int_Tables_number      14
_space_group_name_Hall           '-P 2ybc'
loop_
_symmetry_equiv_pos_site_id
_symmetry_equiv_pos_as_xyz
1 x,y,z
2 -x,1/2+y,1/2-z
3 -x,-y,-z
4 x,1/2-y,1/2+z
_cell_length_a                   6.58730(10)
_cell_length_b                   12.9396(3)
_cell_length_c                   13.0141(3)
_cell_angle_alpha                90
_cell_angle_beta                 90.0230(10)
_cell_angle_gamma                90
_cell_volume                     1109.28
loop_
_atom_site_label
_atom_site_type_symbol
_atom_site_fract_x
_atom_site_fract_y
_atom_site_fract_z
N11 N -0.188(4) 0.7449(18) 0.7718(14)
N12 N 0.206(4) 0.7976(13) 0.7659(11)
Zn1 Zn 0.0000 0.0000 1.0000
Zn2 Zn 0.20294(10) 0.45775(3) 0.95198(5)
Zn3 Zn 0.5000 0.0000 1.0000
F1 F 0.5000 0.5000 1.0000
F2 F 0.1110(5) 0.5517(2) 1.0603(3)
F3 F 0.2468(4) -0.0654(2) 0.9356(2)
N1 N 0.2459(6) 0.3051(3) 0.9748(3)
N2 N 0.0825(6) 0.2408(3) 0.9788(4)
N3 N 0.1504(6) 0.1476(3) 0.9850(4)
N4 N 0.3534(6) 0.1459(3) 0.9856(4)
C1 C 0.4098(8) 0.2441(4) 0.9798(4)
N5 N 0.6039(8) 0.2772(4) 0.9736(7)
H1 H 0.7017 0.2331 0.9732
H2 H 0.6297 0.3422 0.9700
N6 N 0.2448(8) 0.5018(3) 0.8052(3)
N7 N 0.0811(8) 0.5058(4) 0.7404(4)
N8 N 0.1521(7) 0.5143(4) 0.6461(4)
N9 N 0.3536(6) 0.5177(4) 0.6479(4)
C2 C 0.4066(10) 0.5097(5) 0.7440(5)
N10 N 0.6027(9) 0.5079(6) 0.7778(5)
H3 H 0.7009 0.5121 0.7345
H4 H 0.6280 0.5025 0.8424
Zn2B Zn -0.20294(10) -0.45775(3) 1.04802(5)
F2B F -0.1110(5) -0.5517(2) 0.9397(3)
F3B F -0.2468(4) 0.0654(2) 1.0644(2)
N1B N -0.2459(6) -0.3051(3) 1.0252(3)
N2B N -0.0825(6) -0.2408(3) 1.0212(4)
N3B N -0.1504(6) -0.1476(3) 1.0150(4)
N4B N -0.3534(6) -0.1459(3) 1.0144(4)
C1B C -0.4098(8) -0.2441(4) 1.0202(4)
N5B N -0.6039(8) -0.2772(4) 1.0264(7)
H1B H -0.7017 -0.2331 1.0268
H2B H -0.6297 -0.3422 1.0300
N6B N -0.2448(8) -0.5018(3) 1.1948(3)
N7B N -0.0811(8) -0.5058(4) 1.2596(4)
N8B N -0.1521(7) -0.5143(4) 1.3539(4)
N9B N -0.3536(6) -0.5177(4) 1.3521(4)
C2B C -0.4066(10) -0.5097(5) 1.2560(5)
N10B N -0.6027(9) -0.5079(6) 1.2222(5)
H3B H -0.7009 -0.5121 1.2655
H4B H -0.6280 -0.5025 1.1576
Zn1A Zn -0.0000 -0.5000 1.5000
Zn1A_2 Zn 0.0000 0.5000 0.5000
Zn2_2 Zn 0.20294(10) -0.54225(3) 0.95198(5)
Zn2B_2 Zn -0.20294(10) 0.54225(3) 1.04802(5)
Zn2B_3 Zn 0.79706(10) 0.54225(3) 1.04802(5)
Zn3_2 Zn -0.5000 0.0000 1.0000
Zn3A Zn -0.5000 -0.5000 1.5000
Zn3A_2 Zn 0.5000 0.5000 0.5000
F1_2 F -0.5000 -0.5000 1.0000
F2_2 F 0.1110(5) -0.4483(2) 1.0603(3)
F2B_2 F -0.1110(5) 0.4483(2) 0.9397(3)
F3B_2 F 0.7532(4) 0.0654(2) 1.0644(2)
N4B_2 N 0.6466(6) -0.1459(3) 1.0144(4)
N8A N -0.1521(7) 0.0143(4) 0.8539(4)
N8C N 0.1521(7) -0.0143(4) 1.1461(4)
N9A N 0.6464(6) 0.0177(4) 0.8521(4)
N9C N 0.3536(6) -0.0177(4) 1.1479(4)
loop_
_geom_bond_atom_site_label_1
_geom_bond_atom_site_label_2
_geom_bond_site_symmetry_1
_geom_bond_site_symmetry_2
Zn1 F3 1_555 1_555
Zn2 F1 1_555 1_555
Zn3 F3 1_555 1_555
F1 Zn2B_3 1_555 1_555
F2 Zn2 1_555 1_555
N1 Zn2 1_555 1_555
N2 N1 1_555 1_555
N3 Zn1 1_555 1_555
N4 Zn3 1_555 1_555
C1 N1 1_555 1_555
N5 C1 1_555 1_555
H1 N5 1_555 1_555
H2 N5 1_555 1_555
N6 Zn2 1_555 1_555
N7 N6 1_555 1_555
N8 N7 1_555 1_555
N9 N8 1_555 1_555
C2 N6 1_555 1_555
N10 C2 1_555 1_555
H3 N10 1_555 1_555
H4 N10 1_555 1_555
Zn2B F2B 1_555 1_555
F2B Zn2_2 1_555 1_555
F3B Zn1 1_555 1_555
N1B Zn2B 1_555 1_555
N2B N1B 1_555 1_555
N3B Zn1 1_555 1_555
N4B N3B 1_555 1_555
C1B N1B 1_555 1_555
N5B C1B 1_555 1_555
H1B N5B 1_555 1_555
H2B N5B 1_555 1_555
N6B Zn2B 1_555 1_555
N7B N6B 1_555 1_555
N8B N7B 1_555 1_555
N9B N8B 1_555 1_555
C2B N6B 1_555 1_555
N10B C2B 1_555 1_555
H3B N10B 1_555 1_555
H4B N10B 1_555 1_555
Zn1A N8B 1_555 1_555
Zn1A_2 N8 1_555 1_555
Zn2_2 F2_2 1_555 1_555
Zn2B_2 F2 1_555 1_555
Zn3_2 F3B 1_555 1_555
Zn3A N9B 1_555 1_555
Zn3A_2 N9 1_555 1_555
F1_2 Zn2B 1_555 1_555
F2_2 Zn2B 1_555 1_555
F2B_2 Zn2 1_555 1_555
F3B_2 Zn3 1_555 1_555
N4B_2 Zn3 1_555 1_555
N8A Zn1 1_555 1_555
N8C Zn1 1_555 1_555
N9A Zn3 1_555 1_555
N9C Zn3 1_555 1_555
N2 N3 1_555 1_555
N3 N4 1_555 1_555
N4 C1 1_555 1_555
N9 C2 1_555 1_555
N2B N3B 1_555 1_555
N4B C1B 1_555 1_555
N4B Zn3_2 1_555 1_555
N9B C2B 1_555 1_555
Zn2B_2 F2B_2 1_555 1_555
N8C N9C 1_555 1_555

#END
