
#######################################################################
#
#                 Cambridge Crystallographic Data Centre
#                                CCDC 
#
#######################################################################
#
# If this CIF has been generated from an entry in the Cambridge 
# Structural Database, then it will include bibliographic, chemical, 
# crystal, experimental, refinement or atomic coordinate data resulting 
# from the CCDC's data processing and validation procedures.
#
#######################################################################

data_HOKMUR
_chemical_formula_moiety         '(C16 H24 N32 Zn4)n'
_symmetry_cell_setting           monoclinic
_symmetry_space_group_name_H-M   'P c'
_symmetry_Int_Tables_number      7
_space_group_name_Hall           'P -2yc'
loop_
_symmetry_equiv_pos_site_id
_symmetry_equiv_pos_as_xyz
1 x,y,z
2 x,-y,1/2+z
_cell_length_a                   19.2148(14)
_cell_length_b                   13.3436(8)
_cell_length_c                   10.6713(5)
_cell_angle_alpha                90
_cell_angle_beta                 95.038(6)
_cell_angle_gamma                90
_cell_volume                     2725.49
loop_
_atom_site_label
_atom_site_type_symbol
_atom_site_fract_x
_atom_site_fract_y
_atom_site_fract_z
Zn1 Zn -0.22546(8) -0.39144(7) -0.4237(2)
Zn2 Zn 0.02544(7) -0.10827(7) -0.39695(14)
Zn3 Zn -0.47663(6) -0.10891(8) -0.43431(15)
Zn4 Zn -0.72494(8) -0.39118(7) -0.4024(2)
N1 N -0.5464(5) -0.2821(8) -0.5326(8)
N2 N -0.5972(5) -0.3423(8) -0.5288(8)
N3 N -0.5510(4) -0.2156(5) -0.4460(7)
N4 N -0.6349(4) -0.3187(5) -0.4244(6)
N5 N -0.2898(5) -0.2074(7) -0.5253(7)
N6 N -0.3379(5) -0.1476(7) -0.5266(7)
N7 N -0.3000(4) -0.2913(5) -0.4521(6)
N8 N -0.3877(5) -0.1905(6) -0.4517(6)
N9 N -0.0297(5) -0.3044(7) -0.4827(8)
N10 N -0.0839(5) -0.3641(6) -0.4874(9)
N11 N -0.1338(4) -0.3193(6) -0.4335(7)
N12 N -0.0461(4) -0.2161(6) -0.4232(6)
N13 N 0.2160(5) -0.2054(6) -0.4917(8)
N14 N 0.1187(4) -0.1761(6) -0.4061(6)
N15 N 0.1635(5) -0.1410(6) -0.4874(7)
N16 N 0.2070(4) -0.2770(5) -0.4140(6)
N17 N -0.2325(6) -0.4134(7) -0.0521(7)
N18 N -0.2331(6) -0.3694(6) -0.1627(6)
N19 N -0.2273(4) -0.4448(5) -0.2502(6)
N20 N -0.2266(4) -0.5133(5) -0.0673(6)
N21 N 0.0210(4) 0.0131(6) -0.0390(6)
N22 N -0.7289(4) -0.5144(6) -0.0479(6)
N23 N -0.7230(5) -0.4441(6) -0.2293(6)
N24 N -0.4540(6) -0.0742(9) -0.0657(8)
N25 N -0.4507(6) -0.1242(7) -0.1714(7)
N26 N -0.4669(4) -0.0519(6) -0.2595(6)
N27 N -0.4764(4) 0.0172(5) -0.0796(6)
C1 C -0.6039(5) -0.2404(7) -0.3811(7)
C2 C -0.6281(7) -0.1942(12) -0.2728(11)
H1 H -0.6001 -0.1362 -0.2506
H2 H -0.6246 -0.2408 -0.2041
H3 H -0.6760 -0.1743 -0.2908
C3 C -0.3581(6) -0.2774(8) -0.4067(8)
C4 C -0.3947(7) -0.3424(10) -0.3272(12)
H4 H -0.4371 -0.3104 -0.3070
H5 H -0.3658 -0.3558 -0.2511
H6 H -0.4058 -0.4042 -0.3704
C5 C 0.1114(7) -0.3176(10) -0.2636(11)
H7 H 0.1381 -0.3767 -0.2409
H8 H 0.0654 -0.3366 -0.2977
H9 H 0.1080 -0.2768 -0.1904
C6 C 0.1472(5) -0.2587(7) -0.3617(7)
C7 C -0.2251(5) -0.5288(7) -0.1886(7)
C8 C -0.1109(6) -0.2274(8) -0.3927(8)
C9 C -0.1465(6) -0.1543(9) -0.3265(12)
H10 H -0.1925 -0.1782 -0.3139
H11 H -0.1500 -0.0933 -0.3744
H12 H -0.1212 -0.1419 -0.2464
C10 C -0.4948(8) 0.1275(8) -0.2629(9)
H13 H -0.4954 0.1182 -0.3522
H14 H -0.4590 0.1748 -0.2355
H15 H -0.5394 0.1524 -0.2428
C11 C -0.4805(5) 0.0309(7) -0.1988(7)
C12 C -0.7497(8) -0.6263(8) -0.2342(11)
H16 H -0.7512 -0.6165 -0.3235
H17 H -0.7938 -0.6518 -0.2128
H18 H -0.7134 -0.6734 -0.2083
C13 C -0.2160(9) -0.6329(9) -0.2389(11)
H19 H -0.2162 -0.6804 -0.1714
H20 H -0.1723 -0.6370 -0.2760
H21 H -0.2536 -0.6476 -0.3014
N28 N 0.0199(4) -0.0573(6) -0.2272(7)
C14 C -0.7353(5) -0.5308(6) -0.1701(7)
N29 N 0.0145(6) -0.1260(6) -0.1402(7)
C15 C 0.0222(5) 0.0313(7) -0.1633(8)
N30 N -0.7131(6) -0.4187(6) -0.0302(7)
N31 N 0.0154(5) -0.0874(6) -0.0274(7)
N32 N -0.7044(6) -0.3787(6) -0.1378(8)
C16 C 0.0320(7) 0.1296(8) -0.2242(9)
H22 H 0.0311 0.1206 -0.3136
H23 H 0.0761 0.1577 -0.1927
H24 H -0.0050 0.1742 -0.2057
Zn1A Zn -0.22546(8) -0.60856(7) 0.0763(2)
Zn2A Zn 0.02544(7) 0.10827(7) 0.10305(14)
Zn3A Zn -0.47663(6) 0.10891(8) 0.06569(15)
Zn4_2 Zn 0.27506(8) -0.39118(7) -0.4024(2)
Zn4A Zn -0.72494(8) -0.60882(7) 0.0976(2)
N16_2 N -0.7930(4) -0.2770(5) -0.4140(6)
N20A N -0.2266(4) -0.4867(5) -0.5673(6)
N21A N 0.0210(4) -0.0131(6) -0.5390(6)
N22A N -0.7289(4) -0.4856(6) -0.5479(6)
N27A N -0.4764(4) -0.0172(5) -0.5796(6)
loop_
_geom_bond_atom_site_label_1
_geom_bond_atom_site_label_2
_geom_bond_site_symmetry_1
_geom_bond_site_symmetry_2
Zn1 N7 1_555 1_555
Zn2 N12 1_555 1_555
Zn3 N3 1_555 1_555
Zn4 N4 1_555 1_555
N1 N2 1_555 1_555
N2 N4 1_555 1_555
N3 N1 1_555 1_555
N4 C1 1_555 1_555
N5 N6 1_555 1_555
N6 N8 1_555 1_555
N7 N5 1_555 1_555
N8 Zn3 1_555 1_555
N9 N10 1_555 1_555
N10 N11 1_555 1_555
N11 Zn1 1_555 1_555
N12 N9 1_555 1_555
N13 N15 1_555 1_555
N14 Zn2 1_555 1_555
N15 N14 1_555 1_555
N16 N13 1_555 1_555
N17 N18 1_555 1_555
N18 N19 1_555 1_555
N19 Zn1 1_555 1_555
N20 N17 1_555 1_555
N21 C15 1_555 1_555
N22 C14 1_555 1_555
N23 Zn4 1_555 1_555
N24 N25 1_555 1_555
N25 N26 1_555 1_555
N26 Zn3 1_555 1_555
N27 N24 1_555 1_555
C1 N3 1_555 1_555
C2 C1 1_555 1_555
H1 C2 1_555 1_555
H2 C2 1_555 1_555
H3 C2 1_555 1_555
C3 N7 1_555 1_555
C4 C3 1_555 1_555
H4 C4 1_555 1_555
H5 C4 1_555 1_555
H6 C4 1_555 1_555
C5 H7 1_555 1_555
H8 C5 1_555 1_555
H9 C5 1_555 1_555
C6 N14 1_555 1_555
C7 N19 1_555 1_555
C8 N11 1_555 1_555
C9 C8 1_555 1_555
H10 C9 1_555 1_555
H11 C9 1_555 1_555
H12 C9 1_555 1_555
C10 H13 1_555 1_555
H14 C10 1_555 1_555
H15 C10 1_555 1_555
C11 N26 1_555 1_555
C12 H16 1_555 1_555
H17 C12 1_555 1_555
H18 C12 1_555 1_555
C13 C7 1_555 1_555
H19 C13 1_555 1_555
H20 C13 1_555 1_555
H21 C13 1_555 1_555
N28 Zn2 1_555 1_555
C14 N23 1_555 1_555
N29 N28 1_555 1_555
C15 N28 1_555 1_555
N30 N22 1_555 1_555
N31 N21 1_555 1_555
N32 N23 1_555 1_555
C16 C15 1_555 1_555
H22 C16 1_555 1_555
H23 C16 1_555 1_555
H24 C16 1_555 1_555
Zn1A N20 1_555 1_555
Zn2A N21 1_555 1_555
Zn3A N27 1_555 1_555
Zn4_2 N16 1_555 1_555
Zn4A N22 1_555 1_555
N16_2 Zn4 1_555 1_555
N20A Zn1 1_555 1_555
N21A Zn2 1_555 1_555
N22A Zn4 1_555 1_555
N27A Zn3 1_555 1_555
N8 C3 1_555 1_555
N12 C8 1_555 1_555
N16 C6 1_555 1_555
N20 C7 1_555 1_555
N27 C11 1_555 1_555
C5 C6 1_555 1_555
C10 C11 1_555 1_555
C12 C14 1_555 1_555
N29 N31 1_555 1_555
N30 N32 1_555 1_555

#END
