
#######################################################################
#
#                 Cambridge Crystallographic Data Centre
#                                CCDC 
#
#######################################################################
#
# If this CIF has been generated from an entry in the Cambridge 
# Structural Database, then it will include bibliographic, chemical, 
# crystal, experimental, refinement or atomic coordinate data resulting 
# from the CCDC's data processing and validation procedures.
#
#######################################################################

data_CILLAL
_chemical_formula_moiety         '(C78 H76 Cu6 O41 S3)n'
_symmetry_cell_setting           tetragonal
_symmetry_space_group_name_H-M   'I 4 2 2'
_symmetry_Int_Tables_number      97
_space_group_name_Hall           'I 4 2'
loop_
_symmetry_equiv_pos_site_id
_symmetry_equiv_pos_as_xyz
1 x,y,z
2 -x,-y,z
3 -y,x,z
4 y,-x,z
5 -x,y,-z
6 x,-y,-z
7 y,x,-z
8 -y,-x,-z
9 1/2+x,1/2+y,1/2+z
10 1/2-x,1/2-y,1/2+z
11 1/2-y,1/2+x,1/2+z
12 1/2+y,1/2-x,1/2+z
13 1/2-x,1/2+y,1/2-z
14 1/2+x,1/2-y,1/2-z
15 1/2+y,1/2+x,1/2-z
16 1/2-y,1/2-x,1/2-z
_cell_length_a                   28.885(4)
_cell_length_b                   28.885(4)
_cell_length_c                   28.305(6)
_cell_angle_alpha                90
_cell_angle_beta                 90
_cell_angle_gamma                90
_cell_volume                     23616.1
loop_
_atom_site_label
_atom_site_type_symbol
_atom_site_fract_x
_atom_site_fract_y
_atom_site_fract_z
Cu1 Cu 0.78327(9) 0.5000 1.0000
Cu2 Cu 0.87476(9) 0.5000 1.0000
Cu3 Cu 0.64046(15) 0.35735(14) 0.81193(7)
Cu4 Cu 0.68432(13) 0.31378(14) 0.74330(7)
O1 O 0.7417(6) 0.3254(7) 0.7829(7)
O2 O 0.7038(5) 0.3596(6) 0.8410(6)
O3 O 0.7907(5) 0.4527(6) 0.9490(6)
O4 O 0.8682(4) 0.4514(5) 0.9527(5)
O5 O 0.9100(6) 0.3352(8) 0.8265(6)
C1 C 0.7835(5) 0.3610(6) 0.8412(6)
C2 C 0.7857(5) 0.3919(6) 0.8787(6)
H1 H 0.7588 0.4059 0.8899
C3 C 0.8280(6) 0.4019(5) 0.8997(5)
C4 C 0.8682(5) 0.3809(6) 0.8831(5)
H2 H 0.8965 0.3876 0.8972
C5 C 0.8660(5) 0.3500(6) 0.8455(6)
C6 C 0.8236(6) 0.3401(6) 0.8245(5)
H3 H 0.8222 0.3194 0.7994
C7 C 0.7389(6) 0.3446(8) 0.8231(7)
C8 C 0.8300(6) 0.4379(6) 0.9384(6)
C9 C 0.9109(6) 0.3097(8) 0.7871(7)
H4 H 0.8873 0.3213 0.7658
H5 H 0.9026 0.2782 0.7953
C10 C 0.9565(5) 0.3086(7) 0.7609(5)
C11 C 0.9978(6) 0.3075(5) 0.7861(3)
H6 H 0.9978 0.2990 0.8177
C12 C 1.0391(5) 0.3191(6) 0.7639(5)
C13 C 0.9978(7) 0.3329(7) 0.6913(3)
C14 C 0.9565(5) 0.3213(8) 0.7135(5)
H7 H 0.9288 0.3220 0.6967
C15 C 1.0405(5) 0.3122(9) 0.7158(5)
H8 H 1.0681 0.3152 0.6992
O6 O 1.2579(6) 0.3277(6) 0.7791(5)
O7 O 1.2951(5) 0.3679(7) 0.8353(6)
O8 O 1.2105(6) 0.4529(8) 0.9527(6)
O9 O 1.1323(7) 0.4545(8) 0.9495(7)
O10 O 1.0872(4) 0.3396(5) 0.8310(5)
C16 C 1.2164(4) 0.3541(5) 0.8452(5)
C17 C 1.2151(4) 0.3883(5) 0.8797(5)
H9 H 1.2426 0.4001 0.8920
C18 C 1.1728(5) 0.4049(5) 0.8958(5)
C19 C 1.1318(4) 0.3872(5) 0.8775(6)
H10 H 1.1035 0.3983 0.8882
C20 C 1.1331(4) 0.3530(5) 0.8430(5)
C21 C 1.1755(5) 0.3364(5) 0.8268(5)
H11 H 1.1763 0.3135 0.8037
C22 C 1.2594(6) 0.3530(9) 0.8156(8)
C23 C 1.1719(8) 0.4419(11) 0.9347(11)
C24 C 1.0843(6) 0.3162(8) 0.7898(7)
H12 H 1.0906 0.2838 0.7962
H13 H 1.1085 0.3273 0.7690
O11 O 0.6866(6) 0.3795(6) 0.7137(6)
O12 O 0.6471(7) 0.4161(7) 0.7711(6)
O13 O 0.6559(6) 0.5864(6) 0.7799(6)
O14 O 0.6937(6) 0.6239(7) 0.7224(8)
O15 O 0.7378(8) 0.4996(6) 0.6036(5)
C25 C 0.6827(6) 0.4588(6) 0.7145(5)
C26 C 0.6736(7) 0.5009(4) 0.7364(3)
H14 H 0.6596 0.5015 0.7660
C27 C 0.6854(6) 0.5421(7) 0.7141(6)
C28 C 0.7063(6) 0.5412(7) 0.6699(6)
H15 H 0.7142 0.5688 0.6549
C29 C 0.7154(7) 0.4991(4) 0.6480(4)
C30 C 0.7036(6) 0.4579(6) 0.6703(6)
H16 H 0.7097 0.4298 0.6556
C31 C 0.6672(7) 0.4141(9) 0.7330(8)
C32 C 0.6804(7) 0.5871(8) 0.7431(8)
C33 C 0.7586(6) 0.4656(10) 0.5808(8)
H17 H 0.7357 0.4434 0.5701
H18 H 0.7796 0.4498 0.6021
C34 C 0.7856(5) 0.4839(8) 0.5384(5)
C35 C 0.7599 0.5000(10) 0.5000
H19 H 0.7277 0.5000 0.5000
C36 C 0.8590 0.5000(14) 0.5000
H20 H 0.8912 0.5000 0.5000
C37 C 0.8333(15) 0.4865(8) 0.5403(8)
H21 H 0.8487 0.4793 0.5682
O16 O 0.7077(6) 0.5000 1.0000
O17 O 0.9475(5) 0.5000 1.0000
O18 O 0.6013(8) 0.3848(8) 0.8721(4)
O19 O 0.7177(7) 0.2786(5) 0.6861(4)
S1 S 0.6991(5) 0.2759(5) 0.6357(5)
C38 C 0.7017(13) 0.3339(7) 0.6149(8)
H22 H 0.7036 0.3547 0.6413
H23 H 0.6743 0.3406 0.5969
H24 H 0.7285 0.3377 0.5953
C39 C 0.7458(11) 0.2520(14) 0.6028(5)
H25 H 0.7573 0.2747 0.5810
H26 H 0.7352 0.2253 0.5857
H27 H 0.7702 0.2430 0.6240
Cu1A Cu 1.21673(9) 0.5000 1.0000
Cu2A Cu 1.12524(9) 0.5000 1.0000
Cu3E Cu 0.64046(15) 0.64265(14) 1.18807(7)
Cu3C Cu 1.35735(14) 0.35954(15) 0.81193(7)
Cu3B Cu 0.64265(14) 0.64046(15) 0.81193(7)
Cu3E_2 Cu 0.64046(15) 0.64265(14) 0.18807(7)
Cu3G Cu 0.64265(14) 0.35954(15) 0.18807(7)
Cu3F Cu 1.35735(14) 0.64046(15) 1.18807(7)
Cu4E Cu 0.68432(13) 0.68622(14) 1.25670(7)
Cu4C Cu 1.31378(14) 0.31568(13) 0.74330(7)
Cu4B Cu 0.68622(14) 0.68432(13) 0.74330(7)
Cu4E_2 Cu 0.68432(13) 0.68622(14) 0.25670(7)
Cu4G Cu 0.68622(14) 0.31568(13) 0.25670(7)
Cu4F Cu 1.31378(14) 0.68432(13) 1.25670(7)
O1E O 0.7417(6) 0.6746(7) 1.2171(7)
O2E O 0.7038(5) 0.6404(6) 1.1590(6)
O3E O 0.7907(5) 0.5473(6) 1.0510(6)
O4E O 0.8682(4) 0.5486(5) 1.0473(5)
O5E O 0.9100(6) 0.6648(8) 1.1735(6)
C1E C 0.7835(5) 0.6390(6) 1.1588(6)
C2E C 0.7857(5) 0.6081(6) 1.1213(6)
H1E H 0.7588 0.5941 1.1101
C3E C 0.8280(6) 0.5981(5) 1.1003(5)
C4E C 0.8682(5) 0.6191(6) 1.1169(5)
H2E H 0.8965 0.6124 1.1028
C5E C 0.8660(5) 0.6500(6) 1.1545(6)
C6E C 0.8236(6) 0.6599(6) 1.1755(5)
H3E H 0.8222 0.6806 1.2006
C7E C 0.7389(6) 0.6554(8) 1.1769(7)
C8E C 0.8300(6) 0.5621(6) 1.0616(6)
C9E C 0.9109(6) 0.6903(8) 1.2129(7)
H4E H 0.8873 0.6787 1.2342
H5E H 0.9026 0.7218 1.2047
C10E C 0.9565(5) 0.6914(7) 1.2391(5)
C11E C 0.9978(6) 0.6925(5) 1.2139(3)
H6E H 0.9978 0.7010 1.1823
C12E C 1.0391(5) 0.6809(6) 1.2361(5)
C13E C 0.9978(7) 0.6671(7) 1.3087(3)
C14E C 0.9565(5) 0.6787(8) 1.2865(5)
H7E H 0.9288 0.6780 1.3033
C15E C 1.0405(5) 0.6878(9) 1.2842(5)
H8E H 1.0681 0.6848 1.3008
O6E O 1.2579(6) 0.6723(6) 1.2209(5)
O6B O 0.6723(6) 0.2579(6) 0.7791(5)
O6G O 0.6723(6) 0.7421(6) 1.2209(5)
O7E O 1.2951(5) 0.6321(7) 1.1647(6)
O7B O 0.6321(7) 0.2951(5) 0.8353(6)
O7G O 0.6321(7) 0.7049(5) 1.1647(6)
O8E O 1.2105(6) 0.5471(8) 1.0473(6)
O8A O 0.7895(6) 0.5471(8) 0.9527(6)
O8D O 0.7895(6) 0.4529(8) 1.0473(6)
O9E O 1.1323(7) 0.5455(8) 1.0505(7)
O9A O 0.8677(7) 0.5455(8) 0.9495(7)
O9D O 0.8677(7) 0.4545(8) 1.0505(7)
O10E O 1.0872(4) 0.6604(5) 1.1690(5)
C16E C 1.2164(4) 0.6459(5) 1.1548(5)
C17E C 1.2151(4) 0.6117(5) 1.1203(5)
H9E H 1.2426 0.5999 1.1080
C18E C 1.1728(5) 0.5951(5) 1.1042(5)
C19E C 1.1318(4) 0.6128(5) 1.1225(6)
H10E H 1.1035 0.6017 1.1118
C20E C 1.1331(4) 0.6470(5) 1.1570(5)
C21E C 1.1755(5) 0.6636(5) 1.1732(5)
H11E H 1.1763 0.6865 1.1963
C22E C 1.2594(6) 0.6470(9) 1.1844(8)
C23E C 1.1719(8) 0.5581(11) 1.0653(11)
C24E C 1.0843(6) 0.6838(8) 1.2102(7)
H12E H 1.0906 0.7162 1.2038
H13E H 1.1085 0.6727 1.2310
O11E O 0.6866(6) 0.6205(6) 0.2863(6)
O11E_2 O 0.6866(6) 0.6205(6) 1.2863(6)
O12E O 0.6471(7) 0.5839(7) 0.2289(6)
O12E_2 O 0.6471(7) 0.5839(7) 1.2289(6)
O13E O 0.6559(6) 0.4136(6) 0.2201(6)
O13C O 0.5864(6) 0.3441(6) 0.7799(6)
O13F O 0.5864(6) 0.6559(6) 1.2201(6)
O14E O 0.6937(6) 0.3761(7) 0.2776(8)
O14C O 0.6239(7) 0.3063(6) 0.7224(8)
O14F O 0.6239(7) 0.6937(6) 1.2776(8)
O15E O 0.7378(8) 0.5004(6) 0.3964(5)
C25E C 0.6827(6) 0.5412(6) 0.2855(5)
C26E C 0.6736(7) 0.4991(4) 0.2636(3)
H14E H 0.6596 0.4985 0.2340
C27E C 0.6854(6) 0.4579(7) 0.2859(6)
C28E C 0.7063(6) 0.4588(7) 0.3301(6)
H15E H 0.7142 0.4312 0.3451
C29E C 0.7154(7) 0.5009(4) 0.3520(4)
C30E C 0.7036(6) 0.5421(6) 0.3297(6)
H16E H 0.7097 0.5702 0.3444
C31E C 0.6672(7) 0.5859(9) 0.2670(8)
C32E C 0.6804(7) 0.4129(8) 0.2569(8)
C33E C 0.7586(6) 0.5344(10) 0.4192(8)
H17E H 0.7357 0.5566 0.4299
H18E H 0.7796 0.5502 0.3979
C34E C 0.7856(5) 0.5161(8) 0.4616(5)
C37E C 0.8333(15) 0.5135(8) 0.4597(8)
H21E H 0.8487 0.5207 0.4318
O18E O 0.6013(8) 0.6152(8) 1.1279(4)
O19E O 0.7177(7) 0.7214(5) 1.3139(4)
S1E S 0.6991(5) 0.7241(5) 1.3643(5)
C38E C 0.7017(13) 0.6661(7) 1.3851(8)
H22E H 0.7036 0.6453 1.3587
H23E H 0.6743 0.6594 1.4031
H24E H 0.7285 0.6623 1.4047
C39E C 0.7458(11) 0.7480(14) 1.3972(5)
H25E H 0.7573 0.7253 1.4190
H26E H 0.7352 0.7747 1.4143
H27E H 0.7702 0.7570 1.3760
O20 O 0.4492(7) 0.6680(10) 0.9112(9)
S2 S 0.4943(6) 0.6621(4) 0.8838(4)
C40 C 0.5042(14) 0.7174(7) 0.8580(8)
H28 H 0.4840 0.7398 0.8723
H29 H 0.4981 0.7159 0.8247
H30 H 0.5358 0.7264 0.8631
C41 C 0.5379(9) 0.6632(15) 0.9282(10)
H31 H 0.5279 0.6823 0.9539
H32 H 0.5660 0.6755 0.9151
H33 H 0.5433 0.6323 0.9394
O21 O 0.9924(15) 0.4516(10) 0.9270(10)
O22 O 1.6454(11) 0.7671(13) 0.4914(15)
O23 O 0.3596(15) 0.6922(11) 0.9699(8)
O24 O 1.0537(15) 0.5537(15) 0.7500
loop_
_geom_bond_atom_site_label_1
_geom_bond_atom_site_label_2
_geom_bond_site_symmetry_1
_geom_bond_site_symmetry_2
Cu1 Cu2 1_555 1_555
Cu2 O4 1_555 1_555
Cu3 Cu4 1_555 1_555
Cu4 O1 1_555 1_555
O1 C7 1_555 1_555
O2 Cu3 1_555 1_555
O3 Cu1 1_555 1_555
O4 C8 1_555 1_555
O5 C5 1_555 1_555
C1 C2 1_555 1_555
C2 H1 1_555 1_555
C3 C2 1_555 1_555
C4 C3 1_555 1_555
H2 C4 1_555 1_555
C5 C4 1_555 1_555
C6 C1 1_555 1_555
H3 C6 1_555 1_555
C7 O2 1_555 1_555
C8 O3 1_555 1_555
C9 O5 1_555 1_555
H4 C9 1_555 1_555
H5 C9 1_555 1_555
C10 C9 1_555 1_555
C11 C10 1_555 1_555
H6 C11 1_555 1_555
C12 C11 1_555 1_555
C13 C14 1_555 1_555
C14 C10 1_555 1_555
H7 C14 1_555 1_555
C15 C12 1_555 1_555
H8 C15 1_555 1_555
O6 C22 1_555 1_555
O7 C22 1_555 1_555
O8 C23 1_555 1_555
O9 C23 1_555 1_555
O10 C20 1_555 1_555
C16 C17 1_555 1_555
C17 H9 1_555 1_555
C18 C17 1_555 1_555
C19 C18 1_555 1_555
H10 C19 1_555 1_555
C20 C19 1_555 1_555
C21 C16 1_555 1_555
H11 C21 1_555 1_555
C22 C16 1_555 1_555
C23 C18 1_555 1_555
C24 C12 1_555 1_555
H12 C24 1_555 1_555
H13 C24 1_555 1_555
O11 Cu4 1_555 1_555
O12 Cu3 1_555 1_555
O13 C32 1_555 1_555
O14 C32 1_555 1_555
O15 C29 1_555 1_555
C25 C26 1_555 1_555
C26 H14 1_555 1_555
C27 C26 1_555 1_555
C28 C27 1_555 1_555
H15 C28 1_555 1_555
C29 C28 1_555 1_555
C30 C25 1_555 1_555
H16 C30 1_555 1_555
C31 O11 1_555 1_555
C32 C27 1_555 1_555
C33 O15 1_555 1_555
H17 C33 1_555 1_555
H18 C33 1_555 1_555
C34 C33 1_555 1_555
C35 C34 1_555 1_555
H19 C35 1_555 1_555
C36 H20 1_555 1_555
C37 C34 1_555 1_555
H21 C37 1_555 1_555
O16 Cu1 1_555 1_555
O17 Cu2 1_555 1_555
O18 Cu3 1_555 1_555
O19 Cu4 1_555 1_555
S1 O19 1_555 1_555
C38 S1 1_555 1_555
H22 C38 1_555 1_555
H23 C38 1_555 1_555
H24 C38 1_555 1_555
C39 S1 1_555 1_555
H25 C39 1_555 1_555
H26 C39 1_555 1_555
H27 C39 1_555 1_555
O20 S2 1_555 1_555
S2 C40 1_555 1_555
C40 H28 1_555 1_555
H29 C40 1_555 1_555
H30 C40 1_555 1_555
C41 S2 1_555 1_555
H31 C41 1_555 1_555
H32 C41 1_555 1_555
H33 C41 1_555 1_555
Cu1A O8 1_555 1_555
Cu2A O9 1_555 1_555
Cu3E Cu4E 1_555 1_555
Cu3C O7 1_555 1_555
Cu3B O13 1_555 1_555
Cu3E_2 Cu4E_2 1_555 1_555
Cu3G Cu4G 1_555 1_555
Cu3F Cu4F 1_555 1_555
Cu4E O1E 1_555 1_555
Cu4C O6 1_555 1_555
Cu4B O14 1_555 1_555
Cu4E_2 O11E 1_555 1_555
Cu4G O14E 1_555 1_555
Cu4F O6E 1_555 1_555
O1E C7E 1_555 1_555
O2E Cu3E 1_555 1_555
O3E Cu1 1_555 1_555
O4E Cu2 1_555 1_555
O5E C5E 1_555 1_555
C1E C2E 1_555 1_555
C2E H1E 1_555 1_555
C3E C2E 1_555 1_555
C4E C3E 1_555 1_555
H2E C4E 1_555 1_555
C5E C4E 1_555 1_555
C6E C1E 1_555 1_555
H3E C6E 1_555 1_555
C7E O2E 1_555 1_555
C8E O3E 1_555 1_555
C9E O5E 1_555 1_555
H4E C9E 1_555 1_555
H5E C9E 1_555 1_555
C10E C9E 1_555 1_555
C11E C10E 1_555 1_555
H6E C11E 1_555 1_555
C12E C11E 1_555 1_555
C13E C14E 1_555 1_555
C14E C10E 1_555 1_555
H7E C14E 1_555 1_555
C15E C12E 1_555 1_555
H8E C15E 1_555 1_555
O6E C22E 1_555 1_555
O6B Cu4 1_555 1_555
O6G Cu4E 1_555 1_555
O7E Cu3F 1_555 1_555
O7B Cu3 1_555 1_555
O7G Cu3E 1_555 1_555
O8E Cu1A 1_555 1_555
O8A Cu1 1_555 1_555
O8D Cu1 1_555 1_555
O9E Cu2A 1_555 1_555
O9A Cu2 1_555 1_555
O9D Cu2 1_555 1_555
O10E C20E 1_555 1_555
C16E C17E 1_555 1_555
C17E H9E 1_555 1_555
C18E C17E 1_555 1_555
C19E C18E 1_555 1_555
H10E C19E 1_555 1_555
C20E C19E 1_555 1_555
C21E C16E 1_555 1_555
H11E C21E 1_555 1_555
C22E O7E 1_555 1_555
C23E O8E 1_555 1_555
C24E C12E 1_555 1_555
H12E C24E 1_555 1_555
H13E C24E 1_555 1_555
O11E C31E 1_555 1_555
O11E_2 Cu4E 1_555 1_555
O12E Cu3E_2 1_555 1_555
O12E_2 Cu3E 1_555 1_555
O13E Cu3G 1_555 1_555
O13C Cu3 1_555 1_555
O13F Cu3E 1_555 1_555
O14E C32E 1_555 1_555
O14C Cu4 1_555 1_555
O14F Cu4E 1_555 1_555
O15E C29E 1_555 1_555
C25E C26E 1_555 1_555
C26E H14E 1_555 1_555
C27E C26E 1_555 1_555
C28E C27E 1_555 1_555
H15E C28E 1_555 1_555
C29E C28E 1_555 1_555
C30E C25E 1_555 1_555
H16E C30E 1_555 1_555
C31E O12E 1_555 1_555
C32E O13E 1_555 1_555
C33E O15E 1_555 1_555
H17E C33E 1_555 1_555
H18E C33E 1_555 1_555
C34E C35 1_555 1_555
C37E C36 1_555 1_555
H21E C37E 1_555 1_555
O18E Cu3E 1_555 1_555
O19E Cu4E 1_555 1_555
S1E O19E 1_555 1_555
C38E S1E 1_555 1_555
H22E C38E 1_555 1_555
H23E C38E 1_555 1_555
H24E C38E 1_555 1_555
C39E S1E 1_555 1_555
H25E C39E 1_555 1_555
H26E C39E 1_555 1_555
H27E C39E 1_555 1_555
C1 C7 1_555 1_555
C3 C8 1_555 1_555
C5 C6 1_555 1_555
C13 C15 1_555 1_555
O10 C24 1_555 1_555
C20 C21 1_555 1_555
O12 C31 1_555 1_555
C25 C31 1_555 1_555
C29 C30 1_555 1_555
C36 C37 1_555 1_555
Cu1A Cu2A 1_555 1_555
Cu3C Cu4C 1_555 1_555
Cu3B Cu4B 1_555 1_555
O4E C8E 1_555 1_555
C1E C7E 1_555 1_555
C3E C8E 1_555 1_555
C5E C6E 1_555 1_555
C13E C15E 1_555 1_555
O9E C23E 1_555 1_555
O10E C24E 1_555 1_555
C16E C22E 1_555 1_555
C18E C23E 1_555 1_555
C20E C21E 1_555 1_555
C25E C31E 1_555 1_555
C27E C32E 1_555 1_555
C29E C30E 1_555 1_555
C33E C34E 1_555 1_555
C34E C37E 1_555 1_555

#END
