
#######################################################################
#
#                 Cambridge Crystallographic Data Centre
#                                CCDC 
#
#######################################################################
#
# If this CIF has been generated from an entry in the Cambridge 
# Structural Database, then it will include bibliographic, chemical, 
# crystal, experimental, refinement or atomic coordinate data resulting 
# from the CCDC's data processing and validation procedures.
#
#######################################################################

data_SEFBOV
_chemical_formula_moiety         '(C17 H22 N2 O9 Zn2)n'
_symmetry_cell_setting           orthorhombic
_symmetry_space_group_name_H-M   'P 21 21 21'
_symmetry_Int_Tables_number      19
_space_group_name_Hall           'P 2ac 2ab'
loop_
_symmetry_equiv_pos_site_id
_symmetry_equiv_pos_as_xyz
1 x,y,z
2 1/2-x,-y,1/2+z
3 -x,1/2+y,1/2-z
4 1/2+x,1/2-y,-z
_cell_length_a                   10.299(2)
_cell_length_b                   11.824(2)
_cell_length_c                   20.372(4)
_cell_angle_alpha                90
_cell_angle_beta                 90
_cell_angle_gamma                90
_cell_volume                     2480.81
loop_
_atom_site_label
_atom_site_type_symbol
_atom_site_fract_x
_atom_site_fract_y
_atom_site_fract_z
_atom_site_U_iso_or_equiv
_atom_site_thermal_displace_type
Zn1 Zn 0.96201(4) 0.08012(4) 0.99135(2) 0.0185 Uani
Zn2 Zn 0.64880(4) 0.17547(4) 0.99221(3) 0.0187 Uani
O1 O 0.8468(3) 0.2293(2) 0.99391(18) 0.0243 Uani
O2 O 0.6254(2) 0.3380(2) 1.00884(17) 0.0236 Uani
O3 O 0.9663(3) 0.3800(3) 1.0192(2) 0.0360 Uani
O4 O 0.8891(4) 0.0455(3) 0.90408(18) 0.0362 Uani
O5 O 0.6846(3) 0.1087(4) 0.90500(19) 0.0403 Uani
O6 O 0.6142(4) -0.0409(4) 0.57831(18) 0.0385 Uani
O7 O 0.8265(3) -0.0825(4) 0.57273(17) 0.0347 Uani
C1 C 0.8595(4) 0.3300(3) 1.0132(2) 0.0212 Uani
C2 C 0.7376(4) 0.3957(4) 1.0309(3) 0.0276 Uani
H1 H 0.7411 0.4714 1.0102 0.0330 Uiso
C3 C 0.7326(6) 0.4089(7) 1.1057(3) 0.0583 Uani
H2 H 0.6554 0.4509 1.1178 0.0870 Uiso
H3 H 0.8091 0.4494 1.1205 0.0870 Uiso
H4 H 0.7303 0.3347 1.1260 0.0870 Uiso
C4 C 0.7832(5) 0.0661(5) 0.8775(2) 0.0290 Uani
C5 C 0.7679(5) 0.0372(4) 0.8065(2) 0.0293 Uani
C6 C 0.8722(6) -0.0005(7) 0.7696(3) 0.0580 Uani
H5 H 0.9537 -0.0092 0.7897 0.0700 Uiso
C7 C 0.6594(15) 0.0707(15) 0.7701(8) 0.0447 Uani
H6 H 0.5932 0.1120 0.7909 0.0540 Uiso
C8 C 0.7260(5) -0.0503(4) 0.6026(2) 0.0280 Uani
C9 C 0.7407(5) -0.0178(5) 0.6741(2) 0.0287 Uani
C10 C 0.6472(18) 0.0454(15) 0.7058(10) 0.0423 Uani
H7 H 0.5743 0.0711 0.6824 0.0510 Uiso
C11 C 0.8589(6) -0.0256(8) 0.7038(3) 0.0610 Uani
H8 H 0.9318 -0.0482 0.6793 0.0730 Uiso
O8 O 1.0443(4) -0.0825(3) 0.9896(2) 0.0451 Uani
N1 N 1.106(2) -0.250(2) 1.0374(15) 0.0783 Uani
C12 C 1.0373(7) -0.1569(5) 1.0291(4) 0.0587 Uani
H9 H 0.9705 -0.1473 1.0600 0.0700 Uiso
C13 C 1.200(2) -0.2756(18) 0.9817(11) 0.1860 Uiso
H10 H 1.2492 -0.3430 0.9921 0.2790 Uiso
H11 H 1.2584 -0.2122 0.9760 0.2790 Uiso
H12 H 1.1512 -0.2877 0.9415 0.2790 Uiso
C14 C 1.076(3) -0.344(2) 1.0742(12) 0.2330 Uiso
H13 H 1.1520 -0.3929 1.0772 0.3490 Uiso
H14 H 1.0057 -0.3852 1.0535 0.3490 Uiso
H15 H 1.0503 -0.3211 1.1179 0.3490 Uiso
Zn1C Zn 0.46201(4) 0.41988(4) 1.00865(2) 0.0185 Uani
Zn1A Zn 0.53799(4) -0.08012(4) 0.49135(2) 0.0185 Uani
Zn2C Zn 1.14880(4) 0.32453(4) 1.00779(3) 0.0187 Uani
Zn2A Zn 0.85120(4) -0.17547(4) 0.49221(3) 0.0187 Uani
O2C O 1.1254(2) 0.1620(2) 0.99116(17) 0.0236 Uani
O3C O 0.4663(3) 0.1200(3) 0.9808(2) 0.0360 Uani
O6A O 0.8858(4) 0.0409(4) 1.07831(18) 0.0385 Uani
O7A O 0.6735(3) 0.0825(4) 1.07273(17) 0.0347 Uani
O9 O 0.663(2) -0.329(2) 0.8194(11) 0.1410 Uiso
N2 N 0.871(2) -0.3015(18) 0.8424(10) 0.1010 Uiso
C15 C 0.767(3) -0.294(2) 0.8025(14) 0.1050 Uiso
H16 H 0.7761 -0.2621 0.7606 0.1260 Uiso
C16 C 0.871(3) -0.375(2) 0.8955(12) 0.0980 Uiso
H17 H 0.9531 -0.3679 0.9188 0.1470 Uiso
H18 H 0.8606 -0.4517 0.8802 0.1470 Uiso
H19 H 0.8005 -0.3554 0.9249 0.1470 Uiso
C17 C 0.965(5) -0.261(4) 0.806(2) 0.2100 Uiso
H20 H 1.0459 -0.2629 0.8309 0.3130 Uiso
H21 H 0.9458 -0.1836 0.7939 0.3130 Uiso
H22 H 0.9747 -0.3067 0.7669 0.3130 Uiso
loop_
_atom_site_aniso_label
_atom_site_aniso_U_11
_atom_site_aniso_U_22
_atom_site_aniso_U_33
_atom_site_aniso_U_23
_atom_site_aniso_U_13
_atom_site_aniso_U_12
Zn1 0.01197(19) 0.0217(2) 0.0217(2) -0.00094(19) 0.00025(18) -0.00051(15)
Zn2 0.0119(2) 0.0221(2) 0.0222(2) -0.0006(2) -0.00046(18) 0.00034(15)
O1 0.0130(12) 0.0214(12) 0.0385(18) -0.0014(14) -0.0005(15) 0.0032(10)
O2 0.0086(11) 0.0251(13) 0.0370(17) -0.0068(15) -0.0041(13) -0.0022(9)
O3 0.0116 0.0313 0.065 -0.0127 0.0033 -0.0021
O4 0.034(2) 0.045(2) 0.0296(18) -0.0180(16) -0.0077(15) 0.0063(17)
O5 0.0215(18) 0.070(3) 0.0293(18) -0.0181(18) 0.0002(14) -0.0064(17)
O6 0.035 0.053 0.0276 -0.0145 -0.0098 0.011
O7 0.0279 0.048 0.0282 -0.0186 0.0033 -0.0054
C1 0.0109(16) 0.0277(18) 0.0251(19) -0.0055(19) -0.0015(16) -0.0017(14)
C2 0.0107(17) 0.029(2) 0.043(3) -0.0155(19) -0.0016(18) 0.0001(16)
C3 0.027(3) 0.094(5) 0.054(4) -0.045(4) -0.006(3) 0.007(3)
C4 0.025(2) 0.036(3) 0.026(2) -0.003(2) -0.0025(18) -0.008(2)
C5 0.031(3) 0.035(3) 0.022(2) -0.0073(19) 0.0013(19) -0.005(2)
C6 0.030(3) 0.108(7) 0.036(3) -0.027(4) -0.012(3) 0.025(4)
C7 0.021(6) 0.069(10) 0.044(8) -0.002(7) 0.006(5) 0.007(7)
C8 0.03 0.031 0.023 -0.0026 0.0012 -0.0055
C9 0.026 0.035 0.025 -0.005 -0.0018 0
C10 0.022 0.069 0.036 -0.022 -0.003 0.011
C11 0.031 0.116 0.036 -0.034 -0.004 0.022
O8 0.0381(19) 0.0242(15) 0.073(3) 0.001(2) 0.010(2) 0.0035(14)
N1 0.068(14) 0.047(11) 0.12(2) -0.003(11) -0.005(11) 0.027(9)
C12 0.048(3) 0.034(3) 0.094(6) 0.006(3) -0.006(4) 0.001(3)
Zn1C 0.01197 0.0217 0.0217 -0.00094 -0.00025 0.00051
Zn1A 0.01197 0.0217 0.0217 0.00094 -0.00025 -0.00051
Zn2C 0.0119 0.0221 0.0222 -0.0006 0.00046 -0.00034
Zn2A 0.0119 0.0221 0.0222 0.0006 0.00046 0.00034
O2C 0.0086 0.0251 0.037 -0.0068 0.0041 0.0022
O3C 0.0116 0.0313 0.065 -0.0127 -0.0033 0.0021
O6A 0.035 0.053 0.0276 0.0145 0.0098 0.011
O7A 0.0279 0.048 0.0282 0.0186 -0.0033 -0.0054
loop_
_geom_bond_atom_site_label_1
_geom_bond_atom_site_label_2
_geom_bond_site_symmetry_1
_geom_bond_site_symmetry_2
Zn1 O1 1_555 1_555
Zn2 O1 1_555 1_555
O1 C1 1_555 1_555
O2 Zn2 1_555 1_555
O3 C1 1_555 1_555
O4 Zn1 1_555 1_555
O5 Zn2 1_555 1_555
O6 C8 1_555 1_555
O7 C8 1_555 1_555
C1 C2 1_555 1_555
C2 O2 1_555 1_555
H1 C2 1_555 1_555
C3 C2 1_555 1_555
H2 C3 1_555 1_555
H3 C3 1_555 1_555
H4 C3 1_555 1_555
C4 O4 1_555 1_555
C5 C4 1_555 1_555
C6 C5 1_555 1_555
H5 C6 1_555 1_555
C7 C5 1_555 1_555
H6 C7 1_555 1_555
C8 C9 1_555 1_555
C9 C10 1_555 1_555
C10 C7 1_555 1_555
H7 C10 1_555 1_555
C11 C6 1_555 1_555
H8 C11 1_555 1_555
O8 Zn1 1_555 1_555
N1 C12 1_555 1_555
C12 O8 1_555 1_555
H9 C12 1_555 1_555
C13 N1 1_555 1_555
H10 C13 1_555 1_555
H11 C13 1_555 1_555
H12 C13 1_555 1_555
C14 N1 1_555 1_555
H13 C14 1_555 1_555
H14 C14 1_555 1_555
H15 C14 1_555 1_555
O9 C15 1_555 1_555
N2 C15 1_555 1_555
C15 H16 1_555 1_555
C16 N2 1_555 1_555
H17 C16 1_555 1_555
H18 C16 1_555 1_555
H19 C16 1_555 1_555
C17 N2 1_555 1_555
H20 C17 1_555 1_555
H21 C17 1_555 1_555
H22 C17 1_555 1_555
Zn1C O2 1_555 1_555
Zn1A O6 1_555 1_555
Zn2C O3 1_555 1_555
Zn2A O7 1_555 1_555
O2C Zn1 1_555 1_555
O3C Zn2 1_555 1_555
O6A Zn1 1_555 1_555
O7A Zn2 1_555 1_555
O5 C4 1_555 1_555
C9 C11 1_555 1_555
Zn2C O2C 1_555 1_555

#END
