
#######################################################################
#
#                 Cambridge Crystallographic Data Centre
#                                CCDC 
#
#######################################################################
#
# If this CIF has been generated from an entry in the Cambridge 
# Structural Database, then it will include bibliographic, chemical, 
# crystal, experimental, refinement or atomic coordinate data resulting 
# from the CCDC's data processing and validation procedures.
#
#######################################################################

data_ACAJIY
_chemical_formula_moiety         '(C32 H54 Cl2 N48 O9 Zn2 2+)n'
_symmetry_cell_setting           rhombohedral
_symmetry_space_group_name_H-M   'R 3'
_symmetry_Int_Tables_number      146
_space_group_name_Hall           'R 3'
loop_
_symmetry_equiv_pos_site_id
_symmetry_equiv_pos_as_xyz
1 x,y,z
2 -y,x-y,z
3 -x+y,-x,z
4 2/3+x,1/3+y,1/3+z
5 2/3-y,1/3+x-y,1/3+z
6 2/3-x+y,1/3-x,1/3+z
7 1/3+x,2/3+y,2/3+z
8 1/3-y,2/3+x-y,2/3+z
9 1/3-x+y,2/3-x,2/3+z
_cell_length_a                   17.5080(9)
_cell_length_b                   17.5080(9)
_cell_length_c                   20.7888(16)
_cell_angle_alpha                90
_cell_angle_beta                 90
_cell_angle_gamma                120
_cell_volume                     5518.65
loop_
_atom_site_label
_atom_site_type_symbol
_atom_site_fract_x
_atom_site_fract_y
_atom_site_fract_z
Zn1 Zn 1.0000 1.0000 0.72463(4)
Zn2 Zn 0.6666 0.3334 0.55502(3)
N1 N 0.8007(2) 0.5669(2) 0.43744(17)
N2 N 0.7401(2) 0.57668(19) 0.47032(15)
N3 N 0.6872(2) 0.50933(19) 0.50554(14)
N4 N 0.71242(19) 0.44997(18) 0.49577(14)
C1 C 0.7799(3) 0.4853(2) 0.45398(18)
H1 H 0.8091 0.4558 0.4382
N5 N 0.9517(2) 0.7685(2) 0.61567(17)
N6 N 0.8788(2) 0.7738(2) 0.61355(16)
N7 N 0.8838(2) 0.8427(2) 0.64370(16)
N8 N 0.96408(19) 0.8847(2) 0.66727(15)
C2 C 1.0043(2) 0.8394(2) 0.64927(19)
H2 H 1.0636 0.8567 0.6597
N9 N 0.5627(2) 0.7712(2) 1.01104(15)
N10 N 0.57472(19) 0.8392(2) 0.97570(15)
N11 N 0.50812(18) 0.82215(19) 0.93688(15)
N12 N 0.44858(19) 0.73893(18) 0.94836(14)
C3 C 0.4832(2) 0.7094(2) 0.99284(18)
H3 H 0.4539 0.6509 1.0093
N13 N 0.7806(2) 0.8054(2) 0.8386(2)
N14 N 0.7695(2) 0.8743(2) 0.83586(15)
N15 N 0.8301(2) 0.9418(2) 0.80387(16)
N16 N 0.88576(19) 0.91725(19) 0.78382(15)
C4 C 0.8553(3) 0.8349(3) 0.8052(3)
H4 H 0.8835 0.8014 0.7975
C5 C 0.6579(2) 0.9236(3) 0.97355(19)
H5 H 0.6780 0.9447 1.0179
H6 H 0.6485 0.9682 0.9512
C6 C 0.7278(3) 0.9130(3) 0.9386(2)
H7 H 0.7399 0.8714 0.9627
H8 H 0.7831 0.9706 0.9368
C7 C 0.6987(2) 0.8785(3) 0.8704(2)
H9 H 0.6458 0.8189 0.8721
H10 H 0.6828 0.9178 0.8470
C8 C 0.7363(2) 0.6585(2) 0.4672(2)
H11 H 0.6794 0.6482 0.4849
H12 H 0.7404 0.6776 0.4219
C9 C 0.8124(3) 0.7304(2) 0.5060(2)
H13 H 0.8685 0.7346 0.4922
H14 H 0.8164 0.7879 0.4974
C10 C 0.7998(3) 0.7113(2) 0.5778(2)
H15 H 0.7486 0.7156 0.5930
H16 H 0.7875 0.6504 0.5859
N1A N 1.4331(2) 1.2338(3) 0.43744(17)
N2A N 1.42332(19) 1.16342(28) 0.47032(15)
N3A N 1.49067(19) 1.17787(28) 0.50554(14)
N4A N 1.55003(18) 1.26245(26) 0.49577(14)
C1A C 1.5147(2) 1.2946(4) 0.45398(18)
H1A H 1.5442 1.3533 0.4382
N5A N 1.2315(2) 1.1832(3) 0.61567(17)
N6A N 1.2262(2) 1.1050(3) 0.61355(16)
N7A N 1.1573(2) 1.0411(3) 0.64370(16)
N8A N 1.1153(2) 1.07938(28) 0.66727(15)
C2A C 1.1606(2) 1.1649(3) 0.64927(19)
H2A H 1.1433 1.2069 0.6597
C8A C 1.3415(2) 1.0778(3) 0.4672(2)
H11A H 1.3518 1.0312 0.4849
H12A H 1.3224 1.0628 0.4219
C9A C 1.2696(2) 1.0820(4) 0.5060(2)
H13A H 1.2654 1.1339 0.4922
H14A H 1.2121 1.0285 0.4974
C10A C 1.2887(2) 1.0885(4) 0.5778(2)
H15A H 1.2844 1.0330 0.5930
H16A H 1.3496 1.1371 0.5859
N1B N 0.7662(3) 1.1993(2) 0.43744(17)
N2B N 0.83658(28) 1.2599(2) 0.47032(15)
N3B N 0.82213(28) 1.3128(2) 0.50554(14)
N4B N 0.73755(26) 1.28758(19) 0.49577(14)
C1B C 0.7054(4) 1.2201(3) 0.45398(18)
H1B H 0.6467 1.1909 0.4382
N5B N 0.8168(3) 1.0483(2) 0.61567(17)
N6B N 0.8950(3) 1.1212(2) 0.61355(16)
N7B N 0.9589(3) 1.1162(2) 0.64370(16)
N8B N 0.92062(28) 1.03592(19) 0.66727(15)
C2B C 0.8351(3) 0.9957(2) 0.64927(19)
H2B H 0.7931 0.9364 0.6597
C8B C 0.9222(3) 1.2637(2) 0.4672(2)
H11B H 0.9688 1.3206 0.4849
H12B H 0.9372 1.2596 0.4219
C9B C 0.9180(4) 1.1876(3) 0.5060(2)
H13B H 0.8661 1.1315 0.4922
H14B H 0.9715 1.1836 0.4974
C10B C 0.9115(4) 1.2002(3) 0.5778(2)
H15B H 0.9670 1.2514 0.5930
H16B H 0.8629 1.2125 0.5859
N9A N 1.2288(2) 0.7915(3) 1.01104(15)
N10A N 1.1608(2) 0.73552(28) 0.97570(15)
N11A N 1.17785(19) 0.68597(26) 0.93688(15)
N12A N 1.26107(18) 0.70965(26) 0.94836(14)
C3A C 1.2906(2) 0.7738(3) 0.99284(18)
H3A H 1.3491 0.8030 1.0093
N13A N 1.1946(2) 0.9752(3) 0.8386(2)
N14A N 1.1257(2) 0.8952(3) 0.83586(15)
N15A N 1.0582(2) 0.8883(3) 0.80387(16)
N16A N 1.08275(19) 0.96851(27) 0.78382(15)
C4A C 1.1651(3) 1.0204(4) 0.8052(3)
H4A H 1.1986 1.0821 0.7975
C5A C 1.0764(3) 0.7343(4) 0.97355(19)
H5A H 1.0553 0.7333 1.0179
H6A H 1.0318 0.6803 0.9512
C6A C 1.0870(3) 0.8148(4) 0.9386(2)
H7A H 1.1286 0.8685 0.9627
H8A H 1.0294 0.8125 0.9368
C7A C 1.1215(3) 0.8202(4) 0.8704(2)
H9A H 1.1811 0.8269 0.8721
H10A H 1.0822 0.7650 0.8470
N9B N 1.2085(3) 1.4373(2) 1.01104(15)
N10B N 1.26448(28) 1.42528(19) 0.97570(15)
N11B N 1.31403(26) 1.49188(18) 0.93688(15)
N12B N 1.29035(26) 1.55142(19) 0.94836(14)
C3B C 1.2262(3) 1.5168(2) 0.99284(18)
H3B H 1.1970 1.5461 1.0093
N13B N 1.0248(3) 1.2194(2) 0.8386(2)
N14B N 1.1048(3) 1.2305(2) 0.83586(15)
N15B N 1.1117(3) 1.1699(2) 0.80387(16)
N16B N 1.03149(27) 1.11424(19) 0.78382(15)
C4B C 0.9796(4) 1.1447(3) 0.8052(3)
H4B H 0.9179 1.1165 0.7975
C5B C 1.2657(4) 1.3421(2) 0.97355(19)
H5B H 1.2667 1.3220 1.0179
H6B H 1.3197 1.3515 0.9512
C6B C 1.1852(4) 1.2722(3) 0.9386(2)
H7B H 1.1315 1.2601 0.9627
H8B H 1.1875 1.2169 0.9368
C7B C 1.1798(4) 1.3013(2) 0.8704(2)
H9B H 1.1731 1.3542 0.8721
H10B H 1.2350 1.3172 0.8470
N4A_2 N 0.55003(18) 0.26245(26) 0.49577(14)
N4B_2 N 0.73755(26) 0.28758(19) 0.49577(14)
N12F N 0.78191(19) 0.40560(18) 0.61503(14)
N12G N 0.59440(18) 0.37632(26) 0.61503(14)
N12H N 0.62368(26) 0.21809(19) 0.61503(14)
Zn2C Zn 0.3333 0.6667 0.88835(3)
Zn2_2 Zn 1.6666 1.3334 0.55502(3)
Zn2_3 Zn 0.6666 1.3334 0.55502(3)
Zn2C_2 Zn 1.3333 0.6667 0.88835(3)
Zn2C_3 Zn 1.3333 1.6667 0.88835(3)
C11 C 0.4525(5) 0.4984(5) 1.1022(4)
H17 H 0.4996 0.5441 1.1294
H18 H 0.4814 0.4834 1.0675
C12 C 0.4007(4) 0.4205(4) 1.1410(3)
H19 H 0.4387 0.3984 1.1572
H20 H 0.3534 0.3748 1.1148
H21 H 0.3750 0.4354 1.1774
O1 O 0.4052(2) 0.5334(2) 1.07491(18)
H22 H 0.3866 0.5533 1.1039
Cl1 Cl 0.61762(8) 0.78165(8) 0.68055(6)
O2 O 0.5313(3) 0.7138(3) 0.6950(2)
O3 O 0.6283(3) 0.8131(3) 0.61689(17)
O4 O 0.6349(3) 0.8563(3) 0.7218(2)
O5 O 0.6828(5) 0.7623(5) 0.6963(4)
Cl2 Cl 0.6667 0.3333 0.82856(8)
O6 O 0.5839(2) 0.3201(2) 0.85135(17)
O7 O 0.6667 0.3333 0.7588(3)
O6A O 0.6799(2) 0.2638(3) 0.85135(17)
O6B O 0.7362(3) 0.4161(2) 0.85135(17)
loop_
_geom_bond_atom_site_label_1
_geom_bond_atom_site_label_2
_geom_bond_site_symmetry_1
_geom_bond_site_symmetry_2
Zn1 N8 1_555 1_555
Zn2 N4 1_555 1_555
N1 N2 1_555 1_555
N2 N3 1_555 1_555
N3 N4 1_555 1_555
N4 C1 1_555 1_555
C1 N1 1_555 1_555
H1 C1 1_555 1_555
N5 N6 1_555 1_555
N6 N7 1_555 1_555
N7 N8 1_555 1_555
N8 C2 1_555 1_555
C2 N5 1_555 1_555
H2 C2 1_555 1_555
N9 N10 1_555 1_555
N10 N11 1_555 1_555
N11 N12 1_555 1_555
N12 C3 1_555 1_555
C3 N9 1_555 1_555
H3 C3 1_555 1_555
N13 N14 1_555 1_555
N14 N15 1_555 1_555
N15 N16 1_555 1_555
N16 Zn1 1_555 1_555
C4 N13 1_555 1_555
H4 C4 1_555 1_555
C5 N10 1_555 1_555
H5 C5 1_555 1_555
H6 C5 1_555 1_555
C6 C5 1_555 1_555
H7 C6 1_555 1_555
H8 C6 1_555 1_555
C7 N14 1_555 1_555
H9 C7 1_555 1_555
H10 C7 1_555 1_555
C8 N2 1_555 1_555
H11 C8 1_555 1_555
H12 C8 1_555 1_555
C9 C8 1_555 1_555
H13 C9 1_555 1_555
H14 C9 1_555 1_555
C10 N6 1_555 1_555
H15 C10 1_555 1_555
H16 C10 1_555 1_555
C11 H17 1_555 1_555
H18 C11 1_555 1_555
C12 C11 1_555 1_555
H19 C12 1_555 1_555
H20 C12 1_555 1_555
H21 C12 1_555 1_555
O1 C11 1_555 1_555
H22 O1 1_555 1_555
Cl1 O2 1_555 1_555
O3 Cl1 1_555 1_555
O4 Cl1 1_555 1_555
O5 Cl1 1_555 1_555
Cl2 O6 1_555 1_555
O7 Cl2 1_555 1_555
N1A N2A 1_555 1_555
N2A N3A 1_555 1_555
N3A N4A 1_555 1_555
N4A C1A 1_555 1_555
C1A N1A 1_555 1_555
H1A C1A 1_555 1_555
N5A N6A 1_555 1_555
N6A N7A 1_555 1_555
N7A N8A 1_555 1_555
N8A Zn1 1_555 1_555
C2A N5A 1_555 1_555
H2A C2A 1_555 1_555
C8A N2A 1_555 1_555
H11A C8A 1_555 1_555
H12A C8A 1_555 1_555
C9A C8A 1_555 1_555
H13A C9A 1_555 1_555
H14A C9A 1_555 1_555
C10A N6A 1_555 1_555
H15A C10A 1_555 1_555
H16A C10A 1_555 1_555
N1B N2B 1_555 1_555
N2B N3B 1_555 1_555
N3B N4B 1_555 1_555
N4B C1B 1_555 1_555
C1B N1B 1_555 1_555
H1B C1B 1_555 1_555
N5B N6B 1_555 1_555
N6B N7B 1_555 1_555
N7B N8B 1_555 1_555
N8B Zn1 1_555 1_555
C2B N5B 1_555 1_555
H2B C2B 1_555 1_555
C8B N2B 1_555 1_555
H11B C8B 1_555 1_555
H12B C8B 1_555 1_555
C9B C8B 1_555 1_555
H13B C9B 1_555 1_555
H14B C9B 1_555 1_555
C10B N6B 1_555 1_555
H15B C10B 1_555 1_555
H16B C10B 1_555 1_555
N9A N10A 1_555 1_555
N10A N11A 1_555 1_555
N11A N12A 1_555 1_555
N12A C3A 1_555 1_555
C3A N9A 1_555 1_555
H3A C3A 1_555 1_555
N13A N14A 1_555 1_555
N14A N15A 1_555 1_555
N15A N16A 1_555 1_555
N16A Zn1 1_555 1_555
C4A N13A 1_555 1_555
H4A C4A 1_555 1_555
C5A N10A 1_555 1_555
H5A C5A 1_555 1_555
H6A C5A 1_555 1_555
C6A C5A 1_555 1_555
H7A C6A 1_555 1_555
H8A C6A 1_555 1_555
C7A N14A 1_555 1_555
H9A C7A 1_555 1_555
H10A C7A 1_555 1_555
N9B N10B 1_555 1_555
N10B N11B 1_555 1_555
N11B N12B 1_555 1_555
N12B C3B 1_555 1_555
C3B N9B 1_555 1_555
H3B C3B 1_555 1_555
N13B N14B 1_555 1_555
N14B N15B 1_555 1_555
N15B N16B 1_555 1_555
N16B Zn1 1_555 1_555
C4B N13B 1_555 1_555
H4B C4B 1_555 1_555
C5B N10B 1_555 1_555
H5B C5B 1_555 1_555
H6B C5B 1_555 1_555
C6B C5B 1_555 1_555
H7B C6B 1_555 1_555
H8B C6B 1_555 1_555
C7B N14B 1_555 1_555
H9B C7B 1_555 1_555
H10B C7B 1_555 1_555
N4A_2 Zn2 1_555 1_555
N4B_2 Zn2 1_555 1_555
N12F Zn2 1_555 1_555
N12G Zn2 1_555 1_555
N12H Zn2 1_555 1_555
Zn2C N12 1_555 1_555
Zn2_2 N4A 1_555 1_555
Zn2_3 N4B 1_555 1_555
Zn2C_2 N12A 1_555 1_555
Zn2C_3 N12B 1_555 1_555
O6A Cl2 1_555 1_555
O6B Cl2 1_555 1_555
N16 C4 1_555 1_555
C6 C7 1_555 1_555
C9 C10 1_555 1_555
N8A C2A 1_555 1_555
C9A C10A 1_555 1_555
N8B C2B 1_555 1_555
C9B C10B 1_555 1_555
N16A C4A 1_555 1_555
C6A C7A 1_555 1_555
N16B C4B 1_555 1_555
C6B C7B 1_555 1_555

#END
