
#######################################################################
#
#                 Cambridge Crystallographic Data Centre
#                                CCDC 
#
#######################################################################
#
# If this CIF has been generated from an entry in the Cambridge 
# Structural Database, then it will include bibliographic, chemical, 
# crystal, experimental, refinement or atomic coordinate data resulting 
# from the CCDC's data processing and validation procedures.
#
#######################################################################

data_NODKUN
_chemical_formula_moiety         '(C50 H61 In1 N6 O19 S2)n'
_symmetry_cell_setting           monoclinic
_symmetry_space_group_name_H-M   'C c'
_symmetry_Int_Tables_number      9
_space_group_name_Hall           'C -2yc'
loop_
_symmetry_equiv_pos_site_id
_symmetry_equiv_pos_as_xyz
1 x,y,z
2 x,-y,1/2+z
3 1/2+x,1/2+y,z
4 1/2+x,1/2-y,1/2+z
_cell_length_a                   22.7480(18)
_cell_length_b                   15.8466(12)
_cell_length_c                   15.1126(12)
_cell_angle_alpha                90.00
_cell_angle_beta                 90.00
_cell_angle_gamma                90.00
_cell_volume                     5447.77
loop_
_atom_site_label
_atom_site_type_symbol
_atom_site_fract_x
_atom_site_fract_y
_atom_site_fract_z
_atom_site_U_iso_or_equiv
_atom_site_thermal_displace_type
In1 In 1.171013(17) 1.60203(2) -0.133084(18) 0.0205 Uani
O1 O 1.13170(19) 1.7015(2) -0.2269(3) 0.0267 Uani
O3 O 1.11024(18) 1.6714(3) -0.0385(3) 0.0297 Uani
O4 O 0.70119(19) 1.9602(3) -0.1449(3) 0.0340 Uani
O5 O 0.73672(19) 1.8020(3) -0.5764(3) 0.0313 Uani
O6 O 1.14635(17) 1.5719(3) -0.2743(3) 0.0243 Uani
O7 O 1.07655(17) 1.5589(2) -0.1057(3) 0.0267 Uani
O8 O 0.7609(2) 1.8756(3) -0.6911(3) 0.0287 Uani
O9 O 0.70414(19) 2.0257(3) -0.0166(3) 0.0307 Uani
O10 O 1.01125(18) 1.7182(3) -0.6085(2) 0.0316 Uani
O11 O 0.84266(19) 1.6902(3) 0.0832(3) 0.0420 Uani
C1 C 1.0092(3) 1.6375(4) -0.0172(4) 0.0267 Uani
C2 C 0.8360(3) 1.7913(3) -0.6258(4) 0.0247 Uani
C3 C 0.8776(3) 1.8144(4) -0.6903(4) 0.0320 Uani
H1 H 0.8660 1.8467 -0.7386 0.0390 Uiso
C4 C 0.7754(3) 1.8240(4) -0.6313(4) 0.0257 Uani
C5 C 1.0977(2) 1.6665(4) -0.3727(3) 0.0227 Uani
C6 C 1.0747(3) 1.7459(4) -0.3878(4) 0.0273 Uani
H2 H 1.0796 1.7879 -0.3454 0.0330 Uiso
C7 C 1.0379(2) 1.7006(4) -0.5279(4) 0.0250 Uani
C8 C 0.9946(3) 1.7187(3) 0.0131(4) 0.0283 Uani
H3 H 1.0226 1.7614 0.0104 0.0340 Uiso
C9 C 1.0619(3) 1.6225(4) -0.5167(4) 0.0237 Uani
H4 H 1.0582 1.5818 -0.5607 0.0290 Uiso
C11 C 1.0445(3) 1.7640(4) -0.4651(4) 0.0280 Uani
H6 H 1.0289 1.8175 -0.4748 0.0330 Uiso
C12 C 1.0923(4) 1.6040(4) -0.4375(5) 0.0250 Uani
H7 H 1.1086 1.5508 -0.4286 0.0300 Uiso
C13 C 0.9532(3) 1.7424(4) -0.6103(4) 0.0267 Uani
C14 C 0.9666(3) 1.5747(4) -0.0115(4) 0.0280 Uani
H8 H 0.9756 1.5204 -0.0304 0.0340 Uiso
C15 C 1.1265(2) 1.6458(4) -0.2872(4) 0.0237 Uani
C16 C 0.8534(3) 1.7440(4) -0.5553(4) 0.0273 Uani
H9 H 0.8259 1.7278 -0.5131 0.0330 Uiso
C17 C 0.8980(2) 1.6729(4) 0.0495(4) 0.0293 Uani
C18 C 0.9109(3) 1.5918(4) 0.0219(5) 0.0353 Uani
H10 H 0.8828 1.5494 0.0257 0.0420 Uiso
C19 C 0.7485(3) 1.8889(4) -0.0265(4) 0.0263 Uani
C20 C 0.7777(3) 1.8324(4) -0.0801(4) 0.0323 Uani
H11 H 0.7750 1.8386 -0.1411 0.0390 Uiso
C21 C 0.9402(3) 1.7362(4) 0.0464(4) 0.0320 Uani
H12 H 0.9314 1.7901 0.0669 0.0390 Uiso
C22 C 0.8105(3) 1.7674(4) -0.0466(4) 0.0333 Uani
H13 H 0.8311 1.7314 -0.0841 0.0400 Uiso
C23 C 0.9126(3) 1.7191(4) -0.5453(4) 0.0273 Uani
H14 H 0.9244 1.6877 -0.4964 0.0330 Uiso
C24 C 0.9355(3) 1.7895(4) -0.6827(4) 0.0283 Uani
H15 H 0.9626 1.8044 -0.7260 0.0340 Uiso
C25 C 0.7822(3) 1.8103(4) 0.1010(4) 0.0283 Uani
H16 H 0.7831 1.8018 0.1618 0.0340 Uiso
C26 C 0.8124(3) 1.7564(4) 0.0453(4) 0.0280 Uani
C27 C 0.7505(3) 1.8770(4) 0.0661(4) 0.0243 Uani
H17 H 0.7306 1.9139 0.1035 0.0290 Uiso
C28 C 0.7164(3) 1.9622(4) -0.0634(4) 0.0267 Uani
C37 C 1.0680(3) 1.6204(4) -0.0556(4) 0.0230 Uani
In1B In 0.671013(17) 2.10203(2) -0.133084(18) 0.0205 Uani
In1C In 0.671013(17) 1.89797(2) -0.633084(18) 0.0205 Uani
O4B O 1.20119(19) 1.4602(3) -0.1449(3) 0.0340 Uani
O5C O 1.23672(19) 1.6980(3) -0.0764(3) 0.0313 Uani
O8C O 1.2609(2) 1.6244(3) -0.1911(3) 0.0287 Uani
O9B O 1.20414(19) 1.5257(3) -0.0166(3) 0.0307 Uani
O2 O 0.5224(7) 0.5101(9) 0.2985(10) 0.1860 Uiso
O12 O 0.7794(4) 0.4527(4) 0.1834(5) 0.0957 Uani
O13 O 0.7752(3) 0.3134(4) 0.2522(4) 0.0660 Uani
O14 O 0.8433(3) 0.3453(3) 0.1352(4) 0.0690 Uani
O15 O 0.8559(3) 0.4018(4) 0.2831(4) 0.0640 Uani
C49 C 0.9024(4) 0.4618(7) 0.2582(7) 0.0733 Uani
H55 H 0.9080 0.4612 0.1946 0.0880 Uiso
H56 H 0.9392 0.4458 0.2860 0.0880 Uiso
C50 C 0.8846(6) 0.5496(7) 0.2882(9) 0.1027 Uani
H57 H 0.9150 0.5891 0.2729 0.1540 Uiso
H58 H 0.8791 0.5497 0.3512 0.1540 Uiso
H59 H 0.8486 0.5655 0.2596 0.1540 Uiso
S1 S 0.81001(10) 0.37645(12) 0.20796(12) 0.0500 Uani
O16 O 0.5438(6) 0.5955(5) 0.5528(12) 0.1833 Uani
O17 O 0.5695(4) 0.4795(7) 0.4665(9) 0.1473 Uani
O18 O 0.5687(4) 0.4676(5) 0.6171(8) 0.1207 Uani
O19 O 0.4796(3) 0.4757(4) 0.5464(5) 0.0810 Uani
C47 C 0.3820(4) 0.4805(8) 0.4942(7) 0.0843 Uani
H50 H 0.3610 0.5056 0.4459 0.1270 Uiso
H51 H 0.3664 0.5010 0.5492 0.1270 Uiso
H52 H 0.3779 0.4202 0.4918 0.1270 Uiso
C48 C 0.4396(7) 0.5011(12) 0.4884(12) 0.1463 Uani
H53 H 0.4528 0.4819 0.4308 0.1760 Uiso
H54 H 0.4414 0.5622 0.4873 0.1760 Uiso
S2 S 0.54366(11) 0.51644(14) 0.55110(19) 0.0694 Uani
C10 C 0.8336(4) 1.0338(5) 0.2332(5) 0.0467 Uani
H5 H 0.8132 0.9850 0.2481 0.0560 Uiso
C34 C 0.9574(5) 1.1767(7) 0.2145(6) 0.0833 Uani
H26 H 0.9890 1.1374 0.2022 0.1000 Uiso
H27 H 0.9569 1.2183 0.1674 0.1000 Uiso
C35 C 0.8524(5) 1.1599(6) 0.1808(5) 0.0600 Uani
H28 H 0.8476 1.2126 0.1548 0.0720 Uiso
C36 C 0.8900(4) 1.0494(6) 0.2493(5) 0.0613 Uani
H29 H 0.9167 1.0144 0.2781 0.0730 Uiso
C44 C 0.7506(5) 1.1159(6) 0.1616(7) 0.0523 Uani
H41 H 0.7478 1.1702 0.1340 0.0790 Uiso
H42 H 0.7247 1.1136 0.2116 0.0790 Uiso
H43 H 0.7399 1.0729 0.1199 0.0790 Uiso
C45 C 0.9695(5) 1.2192(8) 0.2977(7) 0.0877 Uani
H44 H 1.0064 1.2482 0.2937 0.1320 Uiso
H45 H 0.9712 1.1783 0.3445 0.1320 Uiso
H46 H 0.9388 1.2591 0.3098 0.1320 Uiso
N3 N 0.9009(3) 1.1301(5) 0.2136(5) 0.0580 Uani
N4 N 0.8112(3) 1.1019(3) 0.1912(4) 0.0447 Uani
C29 C 0.6829(4) 0.6647(5) 0.5586(5) 0.0553 Uani
H18 H 0.6512 0.7036 0.5493 0.0830 Uiso
H19 H 0.7172 0.6949 0.5779 0.0830 Uiso
H20 H 0.6718 0.6243 0.6029 0.0830 Uiso
C30 C 0.6721(4) 0.5749(6) 0.2472(6) 0.0620 Uani
H21 H 0.6312 0.5915 0.2421 0.0740 Uiso
H22 H 0.6754 0.5166 0.2282 0.0740 Uiso
C31 C 0.7353(4) 0.5382(5) 0.3799(5) 0.0547 Uani
H23 H 0.7593 0.4987 0.3521 0.0660 Uiso
C32 C 0.7383(4) 0.5615(5) 0.4653(5) 0.0517 Uani
H24 H 0.7641 0.5410 0.5080 0.0620 Uiso
C33 C 0.6688(4) 0.6328(5) 0.4005(5) 0.0477 Uani
H25 H 0.6385 0.6710 0.3905 0.0570 Uiso
C46 C 0.7096(4) 0.6306(6) 0.1881(6) 0.0663 Uani
H47 H 0.6965 0.6255 0.1280 0.1000 Uiso
H48 H 0.7500 0.6132 0.1921 0.1000 Uiso
H49 H 0.7062 0.6883 0.2068 0.1000 Uiso
N1 N 0.6912(3) 0.5822(4) 0.3415(4) 0.0460 Uani
N2 N 0.6958(3) 0.6212(4) 0.4766(4) 0.0420 Uani
C38 C 1.0971(4) 1.3745(6) -0.3028(6) 0.0520 Uani
H30 H 1.1033 1.3670 -0.3659 0.0620 Uiso
H31 H 1.1253 1.4161 -0.2824 0.0620 Uiso
C39 C 1.1695(5) 1.1738(6) -0.0801(7) 0.0797 Uani
H32 H 1.1887 1.2195 -0.0501 0.1200 Uiso
H33 H 1.1983 1.1332 -0.0987 0.1200 Uiso
H34 H 1.1421 1.1473 -0.0406 0.1200 Uiso
C40 C 1.1050(4) 1.1640(5) -0.2181(7) 0.0653 Uani
H35 H 1.0967 1.1066 -0.2164 0.0780 Uiso
C41 C 1.0864(4) 1.2185(6) -0.2803(6) 0.0600 Uani
H36 H 1.0625 1.2065 -0.3286 0.0720 Uiso
C42 C 1.0378(4) 1.4083(5) -0.2891(5) 0.0573 Uani
H37 H 1.0337 1.4605 -0.3207 0.0860 Uiso
H38 H 1.0316 1.4179 -0.2271 0.0860 Uiso
H39 H 1.0094 1.3684 -0.3105 0.0860 Uiso
C43 C 1.1393(3) 1.2864(4) -0.1851(5) 0.0417 Uani
H40 H 1.1586 1.3301 -0.1560 0.0500 Uiso
N5 N 1.1378(3) 1.2067(4) -0.1583(5) 0.0523 Uani
N6 N 1.1095(3) 1.2944(4) -0.2584(4) 0.0440 Uani
loop_
_atom_site_aniso_label
_atom_site_aniso_U_11
_atom_site_aniso_U_22
_atom_site_aniso_U_33
_atom_site_aniso_U_23
_atom_site_aniso_U_13
_atom_site_aniso_U_12
In1 0.01543(17) 0.02568(17) 0.02036(16) -0.0004(2) -0.00076(12) 0.0012(2)
O1 0.028(2) 0.030(2) 0.022(2) 0.0009(17) -0.0051(18) 0.0040(18)
O3 0.018 0.039 0.032 -0.0064 0.0015 -0.0047
O4 0.031 0.039 0.032 0.0062 -0.0082 0.0125
O5 0.023(2) 0.043(2) 0.028(2) 0.0056(19) 0.0006(19) 0.0012(19)
O6 0.021(2) 0.028(2) 0.0240(19) 0.0033(17) -0.0036(17) 0.0027(17)
O7 0.023 0.03 0.027 0.0027 0.0031 0.0046
O8 0.020(2) 0.039(2) 0.027(2) 0.009(2) 0.0039(19) 0.005(2)
O9 0.029 0.032 0.031 0 -0.0054 0.0102
O10 0.022(2) 0.051(3) 0.0217(19) 0.0034(18) -0.0009(17) 0.0141(19)
O11 0.027 0.056 0.043 0.026 0.015 0.022
C1 0.02 0.032 0.028 0.006 0.002 0.008
C2 0.022(3) 0.027(3) 0.025(3) 0.003(2) -0.001(2) -0.001(2)
C3 0.026(3) 0.043(3) 0.027(3) 0.009(3) -0.002(3) 0.006(3)
C4 0.022(3) 0.031(3) 0.024(3) -0.002(2) -0.001(2) -0.004(2)
C5 0.015(3) 0.033(3) 0.020(3) 0.001(2) 0.000(2) 0.000(2)
C6 0.026(3) 0.030(3) 0.026(3) -0.003(2) -0.002(2) 0.007(2)
C7 0.019(3) 0.033(3) 0.023(3) 0.005(2) 0.000(2) 0.004(2)
C8 0.025 0.022 0.038 0.004 0.004 0.004
C9 0.020(3) 0.029(3) 0.022(3) -0.002(2) 0.003(2) -0.001(2)
C11 0.029(3) 0.029(3) 0.026(3) 0.003(2) -0.002(3) 0.011(3)
C12 0.025(4) 0.025(3) 0.025(4) 0.007(2) -0.005(3) 0.000(2)
C13 0.022(3) 0.033(3) 0.025(3) 0.000(2) -0.004(2) 0.005(2)
C14 0.018 0.024 0.042 0.002 0.003 0.003
C15 0.014(3) 0.034(3) 0.023(3) 0.002(2) 0.002(2) 0.003(2)
C16 0.021(3) 0.033(3) 0.028(3) 0.007(2) 0.003(3) 0.002(3)
C17 0.015 0.039 0.034 0.008 0 0.012
C18 0.022 0.039 0.045 0.012 0.002 -0.001
C19 0.021 0.036 0.022 0.005 0.001 0.004
C20 0.03 0.044 0.023 0.005 0.005 0.008
C21 0.028 0.027 0.041 0.002 0.005 0.01
C22 0.029 0.042 0.029 0 0.009 0.015
C23 0.029(3) 0.032(3) 0.021(3) 0.008(2) -0.001(3) 0.004(3)
C24 0.023(3) 0.039(3) 0.023(3) 0.010(2) 0.000(2) 0.004(3)
C25 0.023 0.04 0.022 0.006 -0.001 0.003
C26 0.017 0.036 0.031 0.015 0.006 0.012
C27 0.02 0.033 0.02 -0.004 0.002 0
C28 0.017 0.029 0.034 0.006 0.002 0.002
C37 0.013 0.036 0.02 0.016 0 -0.001
In1B 0.01543 0.02568 0.02036 -0.0004 -0.00076 0.0012
In1C 0.01543 0.02568 0.02036 0.0004 -0.00076 -0.0012
O4B 0.031(2) 0.039(2) 0.032(2) 0.0062(18) -0.0082(19) 0.0125(19)
O5C 0.023 0.043 0.028 -0.0056 0.0006 -0.0012
O8C 0.02 0.039 0.027 -0.009 0.0039 -0.005
O9B 0.029(2) 0.032(2) 0.031(2) 0.0000(19) -0.0054(19) 0.0102(19)
O12 0.129(7) 0.069(5) 0.089(5) -0.019(4) -0.042(5) 0.040(4)
O13 0.069(4) 0.079(4) 0.050(3) -0.012(3) 0.014(3) -0.010(3)
O14 0.106(5) 0.055(3) 0.046(3) -0.016(3) 0.013(3) -0.012(3)
O15 0.074(4) 0.079(4) 0.039(3) -0.010(3) -0.004(3) -0.009(3)
C49 0.049(5) 0.101(8) 0.070(6) -0.004(5) 0.008(5) -0.022(5)
C50 0.092(8) 0.078(7) 0.138(11) -0.026(7) 0.038(8) -0.034(6)
S1 0.0661(14) 0.0462(10) 0.0378(9) -0.0145(8) -0.0049(9) 0.0029(9)
O16 0.146(10) 0.054(5) 0.35(2) -0.010(7) -0.106(12) 0.026(5)
O17 0.092(7) 0.146(8) 0.204(11) -0.093(8) 0.016(7) -0.001(6)
O18 0.115(7) 0.075(5) 0.172(9) 0.034(5) -0.064(7) 0.004(4)
O19 0.071(4) 0.072(4) 0.100(5) -0.006(4) -0.024(4) -0.008(3)
C47 0.045(5) 0.141(10) 0.067(6) 0.030(6) -0.013(5) -0.018(6)
C48 0.103(11) 0.189(17) 0.147(13) 0.093(13) -0.077(10) -0.046(11)
S2 0.0616(14) 0.0474(12) 0.0991(19) 0.0076(12) -0.0342(14) -0.0109(10)
C10 0.056(5) 0.047(4) 0.037(4) 0.000(3) 0.004(4) -0.025(4)
C34 0.077(7) 0.105(8) 0.068(6) -0.027(6) 0.025(5) -0.045(6)
C35 0.070(6) 0.061(5) 0.049(5) -0.001(4) 0.022(5) -0.002(5)
C36 0.052(5) 0.080(6) 0.052(5) 0.000(4) 0.016(4) -0.008(4)
C44 0.055(7) 0.056(5) 0.046(5) -0.008(4) 0.002(5) 0.001(4)
C45 0.061(7) 0.120(9) 0.082(7) -0.047(7) -0.006(6) -0.032(6)
N3 0.052(5) 0.064(4) 0.058(4) -0.015(3) 0.019(4) -0.027(4)
N4 0.059(4) 0.040(3) 0.035(3) -0.009(3) 0.013(3) -0.011(3)
C29 0.063(5) 0.053(4) 0.050(4) -0.007(4) -0.006(4) 0.012(4)
C30 0.062(6) 0.065(5) 0.059(5) 0.012(4) 0.002(5) -0.012(5)
C31 0.055(5) 0.051(4) 0.058(5) -0.003(4) 0.009(4) 0.017(4)
C32 0.051(5) 0.056(5) 0.048(4) 0.008(4) 0.010(4) 0.019(4)
C33 0.051(5) 0.041(4) 0.051(4) 0.006(4) 0.001(4) -0.002(4)
C46 0.070(6) 0.069(5) 0.060(5) 0.014(4) 0.015(5) 0.012(5)
N1 0.048(4) 0.040(3) 0.050(4) 0.008(3) 0.007(3) -0.011(3)
N2 0.036(4) 0.042(3) 0.048(4) 0.008(3) 0.002(3) 0.001(3)
C38 0.046(5) 0.071(5) 0.039(5) 0.021(4) -0.005(4) -0.015(4)
C39 0.065(6) 0.077(6) 0.097(7) 0.047(6) 0.030(6) 0.014(5)
C40 0.052(5) 0.037(4) 0.107(7) -0.024(5) 0.028(5) -0.003(4)
C41 0.044(5) 0.070(6) 0.066(5) -0.027(5) 0.011(4) -0.006(4)
C42 0.058(5) 0.076(6) 0.038(4) -0.003(4) 0.001(4) -0.010(4)
C43 0.031(4) 0.046(4) 0.048(4) -0.005(3) 0.015(3) -0.008(3)
N5 0.039(4) 0.043(4) 0.075(5) 0.007(3) 0.015(3) 0.013(3)
N6 0.032(3) 0.058(4) 0.042(3) -0.017(3) 0.004(3) -0.009(3)
loop_
_geom_bond_atom_site_label_1
_geom_bond_atom_site_label_2
_geom_bond_site_symmetry_1
_geom_bond_site_symmetry_2
In1 O1 1_555 1_555
O1 C15 1_555 1_555
O3 In1 1_555 1_555
O4 C28 1_555 1_555
O5 C4 1_555 1_555
O6 In1 1_555 1_555
O7 In1 1_555 1_555
O8 C4 1_555 1_555
O9 C28 1_555 1_555
O10 C7 1_555 1_555
O11 C17 1_555 1_555
O12 S1 1_555 1_555
O13 S1 1_555 1_555
O14 S1 1_555 1_555
O15 C49 1_555 1_555
O16 S2 1_555 1_555
O17 S2 1_555 1_555
O18 S2 1_555 1_555
O19 C48 1_555 1_555
C1 C8 1_555 1_555
C2 C3 1_555 1_555
C3 H1 1_555 1_555
C4 C2 1_555 1_555
C5 C6 1_555 1_555
C6 H2 1_555 1_555
C7 C9 1_555 1_555
C8 H3 1_555 1_555
C9 H4 1_555 1_555
C10 H5 1_555 1_555
C11 C6 1_555 1_555
H6 C11 1_555 1_555
C12 C5 1_555 1_555
H7 C12 1_555 1_555
C13 O10 1_555 1_555
C14 C1 1_555 1_555
H8 C14 1_555 1_555
C15 O6 1_555 1_555
C16 C2 1_555 1_555
H9 C16 1_555 1_555
C17 C18 1_555 1_555
C18 C14 1_555 1_555
H10 C18 1_555 1_555
C19 C20 1_555 1_555
C20 H11 1_555 1_555
C21 C8 1_555 1_555
H12 C21 1_555 1_555
C22 C20 1_555 1_555
H13 C22 1_555 1_555
C23 C13 1_555 1_555
H14 C23 1_555 1_555
C24 C3 1_555 1_555
H15 C24 1_555 1_555
C25 H16 1_555 1_555
C26 O11 1_555 1_555
C27 C19 1_555 1_555
H17 C27 1_555 1_555
C28 C19 1_555 1_555
C29 H18 1_555 1_555
H19 C29 1_555 1_555
H20 C29 1_555 1_555
C30 H21 1_555 1_555
H22 C30 1_555 1_555
C31 H23 1_555 1_555
C32 C31 1_555 1_555
H24 C32 1_555 1_555
C33 H25 1_555 1_555
C34 H26 1_555 1_555
H27 C34 1_555 1_555
C35 H28 1_555 1_555
C36 C10 1_555 1_555
H29 C36 1_555 1_555
C37 O3 1_555 1_555
C38 H30 1_555 1_555
H31 C38 1_555 1_555
C39 H32 1_555 1_555
H33 C39 1_555 1_555
H34 C39 1_555 1_555
C40 H35 1_555 1_555
C41 C40 1_555 1_555
H36 C41 1_555 1_555
C42 C38 1_555 1_555
H37 C42 1_555 1_555
H38 C42 1_555 1_555
H39 C42 1_555 1_555
C43 H40 1_555 1_555
C44 H41 1_555 1_555
H42 C44 1_555 1_555
H43 C44 1_555 1_555
C45 C34 1_555 1_555
H44 C45 1_555 1_555
H45 C45 1_555 1_555
H46 C45 1_555 1_555
C46 C30 1_555 1_555
H47 C46 1_555 1_555
H48 C46 1_555 1_555
H49 C46 1_555 1_555
C47 H50 1_555 1_555
H51 C47 1_555 1_555
H52 C47 1_555 1_555
C48 C47 1_555 1_555
H53 C48 1_555 1_555
H54 C48 1_555 1_555
C49 H55 1_555 1_555
H56 C49 1_555 1_555
C50 C49 1_555 1_555
H57 C50 1_555 1_555
H58 C50 1_555 1_555
H59 C50 1_555 1_555
S1 O15 1_555 1_555
S2 O19 1_555 1_555
N1 C30 1_555 1_555
N2 C29 1_555 1_555
N3 C34 1_555 1_555
N4 C10 1_555 1_555
N5 C39 1_555 1_555
N6 C38 1_555 1_555
In1B O4 1_555 1_555
In1C O5 1_555 1_555
O4B In1 1_555 1_555
O5C In1 1_555 1_555
O8C In1 1_555 1_555
O9B In1 1_555 1_555
O7 C37 1_555 1_555
O8 In1C 1_555 1_555
O9 In1B 1_555 1_555
C1 C37 1_555 1_555
C5 C15 1_555 1_555
C7 C11 1_555 1_555
C9 C12 1_555 1_555
C13 C24 1_555 1_555
C16 C23 1_555 1_555
C17 C21 1_555 1_555
C22 C26 1_555 1_555
C25 C26 1_555 1_555
C25 C27 1_555 1_555
C31 N1 1_555 1_555
C32 N2 1_555 1_555
C33 N1 1_555 1_555
C33 N2 1_555 1_555
C35 N3 1_555 1_555
C35 N4 1_555 1_555
C36 N3 1_555 1_555
C40 N5 1_555 1_555
C41 N6 1_555 1_555
C43 N5 1_555 1_555
C43 N6 1_555 1_555
C44 N4 1_555 1_555

#END
