
#######################################################################
#
#                 Cambridge Crystallographic Data Centre
#                                CCDC 
#
#######################################################################
#
# If this CIF has been generated from an entry in the Cambridge 
# Structural Database, then it will include bibliographic, chemical, 
# crystal, experimental, refinement or atomic coordinate data resulting 
# from the CCDC's data processing and validation procedures.
#
#######################################################################

data_NODKIB
_chemical_formula_moiety         'C38 H39 In1 N2 O10 1+'
_symmetry_cell_setting           tetragonal
_symmetry_space_group_name_H-M   'P 43 21 2'
_symmetry_Int_Tables_number      96
_space_group_name_Hall           'P 4nw 2abw'
loop_
_symmetry_equiv_pos_site_id
_symmetry_equiv_pos_as_xyz
1 x,y,z
2 -x,-y,1/2+z
3 1/2-y,1/2+x,3/4+z
4 1/2+y,1/2-x,1/4+z
5 1/2-x,1/2+y,3/4-z
6 1/2+x,1/2-y,1/4-z
7 y,x,-z
8 -y,-x,1/2-z
_cell_length_a                   13.73930(10)
_cell_length_b                   13.73930(10)
_cell_length_c                   37.2281(5)
_cell_angle_alpha                90
_cell_angle_beta                 90
_cell_angle_gamma                90
_cell_volume                     7027.49
loop_
_atom_site_label
_atom_site_type_symbol
_atom_site_fract_x
_atom_site_fract_y
_atom_site_fract_z
_atom_site_U_iso_or_equiv
_atom_site_thermal_displace_type
C28 C 0.3773(15) 1.102(2) 0.2736(4) 0.1507 Uani
H29 H 0.3332 1.0788 0.2567 0.1810 Uiso
C29 C 0.4618(12) 1.208(2) 0.3049(5) 0.1633 Uani
H30 H 0.4852 1.2683 0.3126 0.1940 Uiso
C30 C 0.4915(16) 1.1188(15) 0.3138(5) 0.1360 Uiso
H31 H 0.5391 1.1017 0.3305 0.1630 Uiso
C31 C 0.350(2) 1.287(2) 0.2593(8) 0.2230 Uiso
H32 H 0.2980 1.2660 0.2441 0.3350 Uiso
H33 H 0.4016 1.3139 0.2448 0.3350 Uiso
H34 H 0.3267 1.3361 0.2755 0.3350 Uiso
C32 C 0.443(3) 0.944(3) 0.2866(10) 0.2530 Uiso
H35 H 0.4034 0.9078 0.3036 0.3040 Uiso
H36 H 0.4259 0.9248 0.2624 0.3040 Uiso
C33 C 0.535(5) 0.933(4) 0.2929(15) 0.4600 Uiso
H37 H 0.5513 0.8654 0.2923 0.6870 Uiso
H38 H 0.5502 0.9595 0.3161 0.6870 Uiso
H39 H 0.5716 0.9672 0.2749 0.6870 Uiso
N1 N 0.4340(15) 1.0552(16) 0.2922(4) 0.1530 Uani
N2 N 0.3940(16) 1.1898(16) 0.2834(6) 0.1773 Uani
In1 In 0.56080(5) 1.21039(5) 0.417071(19) 0.0687 Uani
O1 O 0.6133(6) 1.2504(6) 0.36128(19) 0.0837 Uani
O2 O 0.7180(6) 1.2322(5) 0.4036(2) 0.0797 Uani
O3 O 0.6188(6) 1.0785(6) 0.4472(2) 0.0870 Uani
O4 O 0.5530(6) 1.0567(5) 0.3954(2) 0.0763 Uani
O5 O 0.4198(7) 1.1794(7) 0.4486(3) 0.1007 Uani
O6 O 0.4127(7) 1.2248(7) 0.3929(3) 0.1063 Uani
O7 O 0.0363(14) 1.0078(15) 0.3682(5) 0.2190 Uiso
O8 O 0.0739(19) 0.927(2) 0.4167(7) 0.2990 Uiso
O9 O 0.5960(5) 1.2945(6) 0.46938(19) 0.0797 Uani
O10 O 0.5409(6) 1.3744(6) 0.4245(2) 0.0847 Uani
C1 C 0.7790(9) 1.2852(7) 0.3464(3) 0.0817 Uani
C2 C 0.7758(10) 1.3951(9) 0.3368(4) 0.1220 Uiso
C3 C 0.8786(9) 1.4148(9) 0.3240(4) 0.0977 Uani
H1 H 0.8806 1.3985 0.2984 0.1170 Uiso
C4 C 0.9515(17) 1.3468(19) 0.3431(7) 0.2220 Uiso
H2 H 0.9965 1.3175 0.3262 0.2670 Uiso
H3 H 0.9879 1.3810 0.3615 0.2670 Uiso
C5 C 0.8831(14) 1.2705(15) 0.3596(5) 0.1470 Uiso
H4 H 0.9052 1.2058 0.3530 0.1770 Uiso
H5 H 0.8849 1.2755 0.3855 0.1770 Uiso
C6 C 0.759(3) 1.266(3) 0.3066(6) 0.2570 Uiso
H6 H 0.7552 1.1976 0.3024 0.3860 Uiso
H7 H 0.8117 1.2930 0.2925 0.3860 Uiso
H8 H 0.6993 1.2968 0.2998 0.3860 Uiso
C7 C 0.6990(17) 1.4187(19) 0.3090(6) 0.1950 Uiso
H9 H 0.6988 1.4875 0.3045 0.2920 Uiso
H10 H 0.6363 1.3992 0.3179 0.2920 Uiso
H11 H 0.7130 1.3844 0.2872 0.2920 Uiso
C8 C 0.7439(9) 1.4547(8) 0.3686(3) 0.0830 Uiso
H12 H 0.7892 1.4458 0.3880 0.1250 Uiso
H13 H 0.6803 1.4341 0.3761 0.1250 Uiso
H14 H 0.7419 1.5223 0.3621 0.1250 Uiso
C9 C 0.6997(8) 1.2547(7) 0.3717(3) 0.0697 Uani
C10 C 0.5952(9) 1.0230(8) 0.4228(3) 0.0743 Uani
C11 C 0.2593(11) 1.1897(10) 0.4238(5) 0.1120 Uani
C12 C 0.2215(14) 1.1065(15) 0.4010(6) 0.1730 Uiso
C13 C 0.1163(11) 1.0946(14) 0.4130(5) 0.1423 Uani
H15 H 0.0801 1.1477 0.4016 0.1700 Uiso
C14 C 0.1191(18) 1.1179(19) 0.4515(5) 0.1900 Uiso
H16 H 0.1275 1.0598 0.4660 0.2280 Uiso
H17 H 0.0609 1.1520 0.4591 0.2280 Uiso
C15 C 0.2101(19) 1.1845(19) 0.4531(8) 0.2030 Uiso
H18 H 0.1894 1.2496 0.4597 0.2440 Uiso
H19 H 0.2527 1.1609 0.4720 0.2440 Uiso
C16 C 0.212(3) 1.279(2) 0.4061(9) 0.2730 Uiso
H20 H 0.1427 1.2746 0.4082 0.4100 Uiso
H21 H 0.2299 1.2813 0.3812 0.4100 Uiso
H22 H 0.2344 1.3371 0.4179 0.4100 Uiso
C17 C 0.217(4) 1.130(4) 0.3610(8) 0.4100 Uiso
H23 H 0.2811 1.1410 0.3520 0.6120 Uiso
H24 H 0.1783 1.1881 0.3575 0.6120 Uiso
H25 H 0.1871 1.0771 0.3484 0.6120 Uiso
C18 C 0.2865(18) 1.0216(16) 0.4033(7) 0.1890 Uiso
H26 H 0.2876 0.9979 0.4276 0.2840 Uiso
H27 H 0.3511 1.0402 0.3962 0.2840 Uiso
H28 H 0.2632 0.9712 0.3876 0.2840 Uiso
C19 C 0.3725(11) 1.2006(10) 0.4206(5) 0.1057 Uani
C20 C 0.0724(15) 1.0010(18) 0.3985(7) 0.2740 Uiso
C21 C 0.5568(9) 1.4634(10) 0.4791(3) 0.0997 Uani
C22 C 0.633(2) 1.470(3) 0.5079(8) 0.2430 Uiso
C23 C 0.559(3) 1.5583(18) 0.4592(8) 0.1220 Uiso
C24 C 0.4853(13) 1.4423(16) 0.5096(5) 0.0810 Uiso
C25 C 0.479(2) 1.3667(18) 0.5385(6) 0.0950 Uiso
C26 C 0.3945(13) 1.3945(13) 0.5000 0.1650 Uiso
C27 C 0.5679(7) 1.3729(8) 0.4566(3) 0.0673 Uani
C3D C 0.6214(9) 0.9148(9) 0.4260(4) 0.0977 Uani
C10D C 0.9048(9) 1.5230(8) 0.3272(3) 0.0743 Uani
C21F C 0.4634(10) 1.5568(9) 0.5209(3) 0.0997 Uani
C24F C 0.4423(16) 1.4853(13) 0.4904(5) 0.0810 Uiso
C25F C 0.3667(18) 1.479(2) 0.4615(6) 0.0950 Uiso
loop_
_atom_site_aniso_label
_atom_site_aniso_U_11
_atom_site_aniso_U_22
_atom_site_aniso_U_33
_atom_site_aniso_U_23
_atom_site_aniso_U_13
_atom_site_aniso_U_12
C28 0.124(14) 0.26(3) 0.068(9) -0.004(13) 0.007(9) -0.046(17)
C29 0.102(12) 0.27(3) 0.118(12) -0.075(16) -0.038(10) 0.016(14)
N1 0.167(15) 0.185(17) 0.107(10) -0.012(11) 0.000(11) -0.059(13)
N2 0.19(2) 0.184(19) 0.158(16) -0.059(15) 0.017(14) -0.043(15)
In1 0.0808(5) 0.0626(4) 0.0627(4) -0.0018(3) 0.0084(4) 0.0025(3)
O1 0.096 0.087 0.068 -0.009 0.01 -0.015
O2 0.082 0.076 0.081 0 0.006 0.008
O3 0.112(6) 0.068(5) 0.081(5) 0.009(4) 0.018(4) 0.012(4)
O4 0.084(5) 0.055(3) 0.090(5) -0.012(4) 0.009(4) -0.017(4)
O5 0.096(6) 0.104(7) 0.102(6) -0.016(5) 0.002(5) -0.014(5)
O6 0.083(6) 0.101(7) 0.135(8) 0.007(6) 0.014(5) 0.001(5)
O9 0.080(5) 0.085(5) 0.074(4) -0.002(4) 0.002(4) -0.009(4)
O10 0.098(6) 0.086(5) 0.070(5) -0.002(4) 0.010(4) 0.013(4)
C1 0.099 0.053 0.093 -0.014 0.036 -0.005
C3 0.105 0.084 0.104 -0.005 0.043 -0.013
C9 0.072 0.048 0.089 -0.012 0.008 -0.005
C10 0.091(8) 0.065(6) 0.067(6) -0.002(5) 0.024(6) -0.001(5)
C11 0.110(10) 0.087(9) 0.139(12) -0.039(8) 0.038(9) -0.036(7)
C13 0.108(11) 0.153(15) 0.166(15) -0.070(13) 0.004(11) -0.051(10)
C19 0.106(10) 0.078(8) 0.133(13) -0.028(10) 0.017(11) -0.006(7)
C21 0.086(8) 0.109(10) 0.104(8) -0.030(7) 0.046(7) -0.012(7)
C27 0.056(6) 0.071(6) 0.075(7) 0.001(5) 0.008(5) -0.014(5)
C3D 0.105(9) 0.084(8) 0.104(9) 0.005(7) 0.043(7) 0.013(7)
C10D 0.091 0.065 0.067 0.002 0.024 0.001
C21F 0.109 0.086 0.104 -0.046 0.03 -0.012
loop_
_geom_bond_atom_site_label_1
_geom_bond_atom_site_label_2
_geom_bond_site_symmetry_1
_geom_bond_site_symmetry_2
In1 O1 1_555 1_555
O1 C9 1_555 1_555
O2 In1 1_555 1_555
O3 In1 1_555 1_555
O4 In1 1_555 1_555
O5 In1 1_555 1_555
O6 In1 1_555 1_555
O7 C20 1_555 1_555
O8 C20 1_555 1_555
O9 In1 1_555 1_555
O10 In1 1_555 1_555
C1 C2 1_555 1_555
C2 C3 1_555 1_555
C3 H1 1_555 1_555
C4 C3 1_555 1_555
H2 C4 1_555 1_555
H3 C4 1_555 1_555
C5 C1 1_555 1_555
H4 C5 1_555 1_555
H5 C5 1_555 1_555
C6 C1 1_555 1_555
H6 C6 1_555 1_555
H7 C6 1_555 1_555
H8 C6 1_555 1_555
C7 C2 1_555 1_555
H9 C7 1_555 1_555
H10 C7 1_555 1_555
H11 C7 1_555 1_555
C8 C2 1_555 1_555
H12 C8 1_555 1_555
H13 C8 1_555 1_555
H14 C8 1_555 1_555
C9 O2 1_555 1_555
C10 O3 1_555 1_555
C11 C12 1_555 1_555
C12 C13 1_555 1_555
C13 H15 1_555 1_555
C14 C13 1_555 1_555
H16 C14 1_555 1_555
H17 C14 1_555 1_555
C15 C11 1_555 1_555
H18 C15 1_555 1_555
H19 C15 1_555 1_555
C16 C11 1_555 1_555
H20 C16 1_555 1_555
H21 C16 1_555 1_555
H22 C16 1_555 1_555
C17 C12 1_555 1_555
H23 C17 1_555 1_555
H24 C17 1_555 1_555
H25 C17 1_555 1_555
C18 C12 1_555 1_555
H26 C18 1_555 1_555
H27 C18 1_555 1_555
H28 C18 1_555 1_555
C19 O5 1_555 1_555
C20 C13 1_555 1_555
C21 C22 1_555 1_555
C23 C21 1_555 1_555
C24 C21 1_555 1_555
C25 C24 1_555 1_555
C26 C24 1_555 1_555
C27 O9 1_555 1_555
C28 H29 1_555 1_555
C29 H30 1_555 1_555
C30 C29 1_555 1_555
H31 C30 1_555 1_555
C31 H32 1_555 1_555
H33 C31 1_555 1_555
H34 C31 1_555 1_555
C32 H35 1_555 1_555
H36 C32 1_555 1_555
C33 C32 1_555 1_555
H37 C33 1_555 1_555
H38 C33 1_555 1_555
H39 C33 1_555 1_555
N1 C28 1_555 1_555
N2 C28 1_555 1_555
C3D C10 1_555 1_555
C10D C3 1_555 1_555
C21F C24 1_555 1_555
C24F C21 1_555 1_555
C25F C26 1_555 1_555
O4 C10 1_555 1_555
O6 C19 1_555 1_555
O10 C27 1_555 1_555
C1 C9 1_555 1_555
C4 C5 1_555 1_555
C11 C19 1_555 1_555
C14 C15 1_555 1_555
C21 C27 1_555 1_555
C24 C24F 1_555 1_555
C25 C26 1_555 1_555
C26 C24F 1_555 1_555
C29 N2 1_555 1_555
C30 N1 1_555 1_555
C31 N2 1_555 1_555
C32 N1 1_555 1_555
C21F C24F 1_555 1_555
C24F C25F 1_555 1_555

#END
