
#######################################################################
#
#                 Cambridge Crystallographic Data Centre
#                                CCDC 
#
#######################################################################
#
# If this CIF has been generated from an entry in the Cambridge 
# Structural Database, then it will include bibliographic, chemical, 
# crystal, experimental, refinement or atomic coordinate data resulting 
# from the CCDC's data processing and validation procedures.
#
#######################################################################

data_COXDEA
_chemical_formula_moiety         '(C28 H24 Cu8 N24 O4)n'
_symmetry_cell_setting           monoclinic
_symmetry_space_group_name_H-M   'C 2/c'
_symmetry_Int_Tables_number      15
_space_group_name_Hall           '-C 2yc'
loop_
_symmetry_equiv_pos_site_id
_symmetry_equiv_pos_as_xyz
1 x,y,z
2 -x,y,1/2-z
3 1/2+x,1/2+y,z
4 1/2-x,1/2+y,1/2-z
5 -x,-y,-z
6 x,-y,1/2+z
7 1/2-x,1/2-y,-z
8 1/2+x,1/2-y,1/2+z
_cell_length_a                   26.169(3)
_cell_length_b                   11.5418(14)
_cell_length_c                   15.8741(19)
_cell_angle_alpha                90
_cell_angle_beta                 121.4550(10)
_cell_angle_gamma                90
_cell_volume                     4090.01
loop_
_atom_site_label
_atom_site_type_symbol
_atom_site_fract_x
_atom_site_fract_y
_atom_site_fract_z
Cu1 Cu 0.5000 0.16418(13) 0.7500
Cu2 Cu 0.24241(4) 0.11826(9) 0.45028(6)
Cu3 Cu 0.31819(4) 0.21243(11) 0.32718(6)
Cu4 Cu 0.56936(3) 0.35719(8) 0.51029(6)
Cu5 Cu 0.5000 0.40357(12) 0.2500
N1 N 0.4232(2) 0.1629(6) 0.6361(4)
N2 N 0.3268(2) 0.1389(6) 0.5253(4)
N3 N 0.3538(2) 0.1821(7) 0.4770(4)
N4 N 0.3952(3) 0.2388(7) 0.3436(4)
N5 N 0.4902(2) 0.2989(6) 0.4173(4)
N6 N 0.4665(2) 0.3018(6) 0.3171(4)
N7 N 0.5739(2) 0.4895(6) 0.3507(4)
N8 N 0.5991(2) 0.4773(6) 0.4512(4)
N9 N 0.6656(2) 0.5683(6) 0.4265(4)
N10 N 0.6373(2) 0.6831(6) 0.1426(4)
N11 N 0.7335(3) 0.7058(7) 0.2579(4)
N12 N 0.7068(2) 0.6467(6) 0.3007(4)
C1 C 0.3603(3) 0.0844(8) 0.6996(5)
H1 H 0.3743 0.1422 0.7523
H2 H 0.3829 0.0123 0.7267
H3 H 0.3176 0.0695 0.6717
C2 C 0.3699(3) 0.1286(7) 0.6208(5)
C3 C 0.4115(3) 0.1954(8) 0.5460(5)
C4 C 0.4594(3) 0.2387(11) 0.5309(6)
O1 O 0.5111(3) 0.2319(10) 0.6030(5)
C5 C 0.4474(3) 0.2596(8) 0.4312(5)
C6 C 0.4107(3) 0.2641(7) 0.2766(5)
C7 C 0.3683(4) 0.2510(8) 0.1665(5)
H4 H 0.3915 0.2446 0.1342
H5 H 0.3420 0.3188 0.1408
H6 H 0.3441 0.1809 0.1532
C8 C 0.6962(4) 0.5379(10) 0.6018(5)
H7 H 0.6737 0.5445 0.6353
H8 H 0.7208 0.6074 0.6151
H9 H 0.7221 0.4695 0.6265
C9 C 0.6536(3) 0.5263(8) 0.4936(5)
C10 C 0.6144(3) 0.5439(7) 0.3384(5)
C11 C 0.6032(3) 0.5717(8) 0.2385(5)
O2 O 0.5593(4) 0.5390(11) 0.1599(7)
C12 C 0.6492(3) 0.6352(7) 0.2287(5)
C13 C 0.6906(3) 0.7274(8) 0.1640(5)
C14 C 0.7005(3) 0.7944(9) 0.0936(6)
H10 H 0.7375 0.8396 0.1304
H11 H 0.6666 0.8468 0.0551
H12 H 0.7039 0.7408 0.0489
Cu2A Cu 0.75759(4) 0.11826(9) 0.04972(6)
Cu3A Cu 0.68181(4) 0.21243(11) 0.17282(6)
Cu4A Cu 0.43064(3) 0.35719(8) -0.01029(6)
N1A N 0.5768(2) 0.1629(6) -0.1361(4)
N2A N 0.6732(2) 0.1389(6) -0.0253(4)
N3A N 0.6462(2) 0.1821(7) 0.0230(4)
N4A N 0.6048(3) 0.2388(7) 0.1564(4)
N5A N 0.5098(2) 0.2989(6) 0.0827(4)
N6A N 0.5335(2) 0.3018(6) 0.1829(4)
N7A N 0.4261(2) 0.4895(6) 0.1493(4)
N8A N 0.4009(2) 0.4773(6) 0.0488(4)
N9A N 0.3344(2) 0.5683(6) 0.0735(4)
N10A N 0.3627(2) 0.6831(6) 0.3574(4)
N11A N 0.2665(3) 0.7058(7) 0.2421(4)
N12A N 0.2932(2) 0.6467(6) 0.1993(4)
C1A C 0.6397(3) 0.0844(8) -0.1996(5)
H1A H 0.6257 0.1422 -0.2523
H2A H 0.6171 0.0123 -0.2267
H3A H 0.6824 0.0695 -0.1717
C2A C 0.6301(3) 0.1286(7) -0.1208(5)
C3A C 0.5885(3) 0.1954(8) -0.0460(5)
C4A C 0.5406(3) 0.2387(11) -0.0309(6)
O1A O 0.4889(3) 0.2319(10) -0.1030(5)
C5A C 0.5526(3) 0.2596(8) 0.0688(5)
C6A C 0.5893(3) 0.2641(7) 0.2234(5)
C7A C 0.6317(4) 0.2510(8) 0.3335(5)
H4A H 0.6085 0.2446 0.3658
H5A H 0.6580 0.3188 0.3592
H6A H 0.6559 0.1809 0.3468
C8A C 0.3038(4) 0.5379(10) -0.1018(5)
H7A H 0.3263 0.5445 -0.1353
H8A H 0.2792 0.6074 -0.1151
H9A H 0.2779 0.4695 -0.1265
C9A C 0.3464(3) 0.5263(8) 0.0064(5)
C10A C 0.3856(3) 0.5439(7) 0.1616(5)
C11A C 0.3968(3) 0.5717(8) 0.2615(5)
O2A O 0.4407(4) 0.5390(11) 0.3401(7)
C12A C 0.3508(3) 0.6352(7) 0.2713(5)
C13A C 0.3094(3) 0.7274(8) 0.3360(5)
C14A C 0.2995(3) 0.7944(9) 0.4064(6)
H10A H 0.2625 0.8396 0.3696
H11A H 0.3334 0.8468 0.4449
H12A H 0.2961 0.7408 0.4511
Cu1_2 Cu 0.5000 0.16418(13) -0.2500
Cu2B Cu 0.74241(4) 0.61826(9) 0.45028(6)
Cu2C Cu 0.25759(4) 0.61826(9) 0.04972(6)
Cu3B Cu 0.81819(4) 0.71243(11) 0.32718(6)
Cu3C Cu 0.18181(4) 0.71243(11) 0.17282(6)
Cu4D Cu 0.43064(3) 0.64281(8) 0.48971(6)
Cu4E Cu 0.56936(3) 0.64281(8) 0.01029(6)
N1A_2 N 0.5768(2) 0.1629(6) 0.8639(4)
N9B N 0.1656(2) 0.0683(6) 0.4265(4)
N9C N 0.8344(2) 0.0683(6) 0.0735(4)
N10D N 0.3627(2) 0.3169(6) -0.1426(4)
N10E N 0.6373(2) 0.3169(6) 0.6426(4)
N11B N 0.2335(3) 0.2058(7) 0.2579(4)
N11C N 0.7665(3) 0.2058(7) 0.2421(4)
N12B N 0.2068(2) 0.1467(6) 0.3007(4)
N12C N 0.7932(2) 0.1467(6) 0.1993(4)
O1A_2 O 0.4889(3) 0.2319(10) 0.8970(5)
O2D O 0.4407(4) 0.4610(11) -0.1599(7)
O2E O 0.5593(4) 0.4610(11) 0.6599(7)
loop_
_geom_bond_atom_site_label_1
_geom_bond_atom_site_label_2
_geom_bond_site_symmetry_1
_geom_bond_site_symmetry_2
Cu1 N1 1_555 1_555
Cu2 N2 1_555 1_555
Cu3 N3 1_555 1_555
Cu4 N5 1_555 1_555
Cu5 N6 1_555 1_555
N1 C2 1_555 1_555
N2 N3 1_555 1_555
N3 C3 1_555 1_555
N4 Cu3 1_555 1_555
N5 N6 1_555 1_555
N6 C6 1_555 1_555
N7 Cu5 1_555 1_555
N8 Cu4 1_555 1_555
N9 C9 1_555 1_555
N10 C12 1_555 1_555
N11 N12 1_555 1_555
N12 C12 1_555 1_555
C1 H1 1_555 1_555
H2 C1 1_555 1_555
H3 C1 1_555 1_555
C2 N2 1_555 1_555
C3 N1 1_555 1_555
C4 C3 1_555 1_555
O1 Cu1 1_555 1_555
C5 N4 1_555 1_555
C6 N4 1_555 1_555
C7 C6 1_555 1_555
H4 C7 1_555 1_555
H5 C7 1_555 1_555
H6 C7 1_555 1_555
C8 H7 1_555 1_555
H8 C8 1_555 1_555
H9 C8 1_555 1_555
C9 N8 1_555 1_555
C10 N7 1_555 1_555
C11 C10 1_555 1_555
O2 C11 1_555 1_555
C12 C11 1_555 1_555
C13 N10 1_555 1_555
C14 C13 1_555 1_555
H10 C14 1_555 1_555
H11 C14 1_555 1_555
H12 C14 1_555 1_555
Cu2A N2A 1_555 1_555
Cu3A N3A 1_555 1_555
Cu4A N5A 1_555 1_555
N1A C2A 1_555 1_555
N2A N3A 1_555 1_555
N3A C3A 1_555 1_555
N4A Cu3A 1_555 1_555
N5A N6A 1_555 1_555
N6A Cu5 1_555 1_555
N7A Cu5 1_555 1_555
N8A Cu4A 1_555 1_555
N9A C9A 1_555 1_555
N10A C12A 1_555 1_555
N11A N12A 1_555 1_555
N12A C12A 1_555 1_555
C1A H1A 1_555 1_555
H2A C1A 1_555 1_555
H3A C1A 1_555 1_555
C2A N2A 1_555 1_555
C3A N1A 1_555 1_555
C4A C3A 1_555 1_555
O1A C4A 1_555 1_555
C5A N4A 1_555 1_555
C6A N4A 1_555 1_555
C7A C6A 1_555 1_555
H4A C7A 1_555 1_555
H5A C7A 1_555 1_555
H6A C7A 1_555 1_555
C8A H7A 1_555 1_555
H8A C8A 1_555 1_555
H9A C8A 1_555 1_555
C9A N8A 1_555 1_555
C10A N7A 1_555 1_555
C11A C10A 1_555 1_555
O2A C11A 1_555 1_555
C12A C11A 1_555 1_555
C13A N10A 1_555 1_555
C14A C13A 1_555 1_555
H10A C14A 1_555 1_555
H11A C14A 1_555 1_555
H12A C14A 1_555 1_555
Cu1_2 N1A 1_555 1_555
Cu2B N9 1_555 1_555
Cu2C N9A 1_555 1_555
Cu3B N11 1_555 1_555
Cu3C N11A 1_555 1_555
Cu4D N10A 1_555 1_555
Cu4E N10 1_555 1_555
N1A_2 Cu1 1_555 1_555
N9B Cu2 1_555 1_555
N9C Cu2A 1_555 1_555
N10D Cu4A 1_555 1_555
N10E Cu4 1_555 1_555
N11B Cu3 1_555 1_555
N11C Cu3A 1_555 1_555
N12B Cu2 1_555 1_555
N12C Cu2A 1_555 1_555
O1A_2 Cu1 1_555 1_555
O2D Cu4A 1_555 1_555
O2E Cu4 1_555 1_555
N5 C5 1_555 1_555
N7 N8 1_555 1_555
N9 C10 1_555 1_555
N11 C13 1_555 1_555
N12 Cu2B 1_555 1_555
C1 C2 1_555 1_555
C4 O1 1_555 1_555
C4 C5 1_555 1_555
C8 C9 1_555 1_555
O2 Cu4E 1_555 1_555
N5A C5A 1_555 1_555
N6A C6A 1_555 1_555
N7A N8A 1_555 1_555
N9A C10A 1_555 1_555
N11A C13A 1_555 1_555
N12A Cu2C 1_555 1_555
C1A C2A 1_555 1_555
C4A C5A 1_555 1_555
O1A Cu1_2 1_555 1_555
C8A C9A 1_555 1_555
O2A Cu4D 1_555 1_555
N11B N12B 1_555 1_555
N11C N12C 1_555 1_555

#END
