
#######################################################################
#
#                 Cambridge Crystallographic Data Centre
#                                CCDC 
#
#######################################################################
#
# If this CIF has been generated from an entry in the Cambridge 
# Structural Database, then it will include bibliographic, chemical, 
# crystal, experimental, refinement or atomic coordinate data resulting 
# from the CCDC's data processing and validation procedures.
#
#######################################################################

data_COXDAW
_chemical_formula_moiety         '(C34 H38 Cu8 N24)n'
_symmetry_cell_setting           monoclinic
_symmetry_space_group_name_H-M   'C 2/c'
_symmetry_Int_Tables_number      15
_space_group_name_Hall           '-C 2yc'
loop_
_symmetry_equiv_pos_site_id
_symmetry_equiv_pos_as_xyz
1 x,y,z
2 -x,y,1/2-z
3 1/2+x,1/2+y,z
4 1/2-x,1/2+y,1/2-z
5 -x,-y,-z
6 x,-y,1/2+z
7 1/2-x,1/2-y,-z
8 1/2+x,1/2-y,1/2+z
_cell_length_a                   23.891(4)
_cell_length_b                   16.095(2)
_cell_length_c                   15.879(2)
_cell_angle_alpha                90
_cell_angle_beta                 120.037(2)
_cell_angle_gamma                90
_cell_volume                     5285.88
loop_
_atom_site_label
_atom_site_type_symbol
_atom_site_fract_x
_atom_site_fract_y
_atom_site_fract_z
Cu1 Cu 0.5000 0.23070(9) 0.7500
Cu2 Cu 0.23756(5) 0.14754(7) 0.44764(7)
Cu3 Cu 0.31815(5) 0.23381(8) 0.32481(7)
Cu4 Cu 0.57188(4) 0.40527(6) 0.51037(7)
Cu5 Cu 0.5000 0.43908(9) 0.2500
N1 N 0.4231(3) 0.2268(4) 0.6324(5)
N2 N 0.3227(3) 0.1909(4) 0.5214(5)
N3 N 0.3519(3) 0.2286(4) 0.4742(5)
N4 N 0.3920(3) 0.2962(5) 0.3421(5)
N5 N 0.4871(3) 0.3616(4) 0.4165(5)
N6 N 0.4603(3) 0.3723(4) 0.3170(5)
N7 N 0.5738(3) 0.5094(4) 0.3552(4)
N8 N 0.6006(3) 0.4980(4) 0.4553(5)
N9 N 0.6637(3) 0.5859(4) 0.4311(5)
N10 N 0.6412(3) 0.6308(4) 0.1400(5)
N11 N 0.7361(3) 0.6804(5) 0.2524(5)
N12 N 0.7043(3) 0.6525(4) 0.2997(5)
C1 C 0.3562(4) 0.1575(6) 0.6946(6)
H1 H 0.3103 0.1455 0.6687
H2 H 0.3708 0.1981 0.7475
H3 H 0.3813 0.1062 0.7195
C2 C 0.3659(4) 0.1923(6) 0.6151(6)
C3 C 0.4110(4) 0.2490(5) 0.5418(6)
C4 C 0.4596(4) 0.2953(7) 0.5290(6)
H4 H 0.5003 0.2628 0.5609
H5 H 0.4681 0.3482 0.5652
C5 C 0.4456(4) 0.3158(6) 0.4283(6)
C6 C 0.4043(4) 0.3327(6) 0.2768(6)
C7 C 0.3588(4) 0.3309(7) 0.1693(4)
H6 H 0.3756 0.3667 0.1369
H7 H 0.3163 0.3511 0.1551
H8 H 0.3549 0.2739 0.1454
C8 C 0.6961(3) 0.5521(5) 0.6033(4)
H9 H 0.6791 0.5169 0.6356
H10 H 0.6974 0.6100 0.6233
H11 H 0.7399 0.5339 0.6217
C9 C 0.6540(4) 0.5455(5) 0.4968(5)
C10 C 0.6124(4) 0.5610(5) 0.3445(6)
C11 C 0.5955(4) 0.5908(6) 0.2453(6)
H12 H 0.5750 0.5439 0.1996
H13 H 0.5622 0.6346 0.2263
C12 C 0.6477(4) 0.6243(5) 0.2299(6)
C13 C 0.6973(4) 0.6661(5) 0.1587(6)
C14 C 0.7140(5) 0.6834(7) 0.0820(7)
H14 H 0.7569 0.7092 0.1115
H15 H 0.6819 0.7213 0.0337
H16 H 0.7143 0.6313 0.0503
Cu2A Cu 0.76244(5) 0.14754(7) 0.05236(7)
Cu3A Cu 0.68185(5) 0.23381(8) 0.17519(7)
Cu4A Cu 0.42812(4) 0.40527(6) -0.01037(7)
N1A N 0.5769(3) 0.2268(4) -0.1324(5)
N2A N 0.6773(3) 0.1909(4) -0.0214(5)
N3A N 0.6481(3) 0.2286(4) 0.0258(5)
N4A N 0.6080(3) 0.2962(5) 0.1579(5)
N5A N 0.5129(3) 0.3616(4) 0.0835(5)
N6A N 0.5397(3) 0.3723(4) 0.1830(5)
N7A N 0.4262(3) 0.5094(4) 0.1448(4)
N8A N 0.3994(3) 0.4980(4) 0.0447(5)
N9A N 0.3363(3) 0.5859(4) 0.0689(5)
N10A N 0.3588(3) 0.6308(4) 0.3600(5)
N11A N 0.2639(3) 0.6804(5) 0.2476(5)
N12A N 0.2957(3) 0.6525(4) 0.2003(5)
C1A C 0.6438(4) 0.1575(6) -0.1946(6)
H1A H 0.6897 0.1455 -0.1687
H2A H 0.6292 0.1981 -0.2475
H3A H 0.6187 0.1062 -0.2195
C2A C 0.6341(4) 0.1923(6) -0.1151(6)
C3A C 0.5890(4) 0.2490(5) -0.0418(6)
C4A C 0.5404(4) 0.2953(7) -0.0290(6)
H4A H 0.4997 0.2628 -0.0609
H5A H 0.5319 0.3482 -0.0652
C5A C 0.5544(4) 0.3158(6) 0.0717(6)
C6A C 0.5957(4) 0.3327(6) 0.2232(6)
C7A C 0.6412(4) 0.3309(7) 0.3307(4)
H6A H 0.6244 0.3667 0.3631
H7A H 0.6837 0.3511 0.3449
H8A H 0.6451 0.2739 0.3546
C8A C 0.3039(3) 0.5521(5) -0.1033(4)
H9A H 0.3209 0.5169 -0.1356
H10A H 0.3026 0.6100 -0.1233
H11A H 0.2601 0.5339 -0.1217
C9A C 0.3460(4) 0.5455(5) 0.0032(5)
C10A C 0.3876(4) 0.5610(5) 0.1555(6)
C11A C 0.4045(4) 0.5908(6) 0.2547(6)
H12A H 0.4250 0.5439 0.3004
H13A H 0.4378 0.6346 0.2737
C12A C 0.3523(4) 0.6243(5) 0.2701(6)
C13A C 0.3027(4) 0.6661(5) 0.3413(6)
C14A C 0.2860(5) 0.6834(7) 0.4180(7)
H14A H 0.2431 0.7092 0.3885
H15A H 0.3181 0.7213 0.4663
H16A H 0.2857 0.6313 0.4497
Cu1_2 Cu 0.5000 0.23070(9) -0.2500
Cu2B Cu 0.73756(5) 0.64754(7) 0.44764(7)
Cu2C Cu 0.26244(5) 0.64754(7) 0.05236(7)
Cu3B Cu 0.81815(5) 0.73381(8) 0.32481(7)
Cu3C Cu 0.18185(5) 0.73381(8) 0.17519(7)
Cu4D Cu 0.42812(4) 0.59473(6) 0.48963(7)
Cu4E Cu 0.57188(4) 0.59473(6) 0.01037(7)
N1A_2 N 0.5769(3) 0.2268(4) 0.8676(5)
N9B N 0.1637(3) 0.0859(4) 0.4311(5)
N9C N 0.8363(3) 0.0859(4) 0.0689(5)
N10D N 0.3588(3) 0.3692(4) -0.1400(5)
N10E N 0.6412(3) 0.3692(4) 0.6400(5)
N11B N 0.2361(3) 0.1804(5) 0.2524(5)
N11C N 0.7639(3) 0.1804(5) 0.2476(5)
N12B N 0.2043(3) 0.1525(4) 0.2997(5)
N12C N 0.7957(3) 0.1525(4) 0.2003(5)
C15 C 0.4243(9) 0.1682(11) 0.069(2)
H17 H 0.4563 0.2097 0.0852
C16 C 0.3855(13) 0.1435(14) -0.0270(17)
H18 H 0.3910 0.1683 -0.0767
C17 C 0.3386(11) 0.0827(16) -0.0505(15)
H19 H 0.3121 0.0659 -0.1163
C18 C 0.3306(10) 0.0465(12) 0.022(2)
H20 H 0.2986 0.0049 0.0061
C19 C 0.3694(13) 0.0711(14) 0.118(2)
H21 H 0.3639 0.0464 0.1681
C20 C 0.4162(11) 0.1320(15) 0.1419(13)
H22 H 0.4427 0.1488 0.2076
loop_
_geom_bond_atom_site_label_1
_geom_bond_atom_site_label_2
_geom_bond_site_symmetry_1
_geom_bond_site_symmetry_2
Cu1 N1 1_555 1_555
Cu2 N2 1_555 1_555
Cu3 N3 1_555 1_555
Cu4 N5 1_555 1_555
Cu5 N6 1_555 1_555
N1 C2 1_555 1_555
N2 N3 1_555 1_555
N3 C3 1_555 1_555
N4 Cu3 1_555 1_555
N5 N6 1_555 1_555
N6 C6 1_555 1_555
N7 Cu5 1_555 1_555
N8 Cu4 1_555 1_555
N9 C9 1_555 1_555
N10 C12 1_555 1_555
N11 N12 1_555 1_555
N12 C12 1_555 1_555
C1 H1 1_555 1_555
H2 C1 1_555 1_555
H3 C1 1_555 1_555
C2 N2 1_555 1_555
C3 N1 1_555 1_555
C4 C3 1_555 1_555
H4 C4 1_555 1_555
H5 C4 1_555 1_555
C5 N4 1_555 1_555
C6 N4 1_555 1_555
C7 C6 1_555 1_555
H6 C7 1_555 1_555
H7 C7 1_555 1_555
H8 C7 1_555 1_555
C8 H9 1_555 1_555
H10 C8 1_555 1_555
H11 C8 1_555 1_555
C9 N8 1_555 1_555
C10 N7 1_555 1_555
C11 C10 1_555 1_555
H12 C11 1_555 1_555
H13 C11 1_555 1_555
C12 C11 1_555 1_555
C13 N10 1_555 1_555
C14 C13 1_555 1_555
H14 C14 1_555 1_555
H15 C14 1_555 1_555
H16 C14 1_555 1_555
C15 H17 1_555 1_555
C16 C15 1_555 1_555
H18 C16 1_555 1_555
C17 C16 1_555 1_555
H19 C17 1_555 1_555
C18 C17 1_555 1_555
H20 C18 1_555 1_555
C19 C18 1_555 1_555
H21 C19 1_555 1_555
C20 C15 1_555 1_555
H22 C20 1_555 1_555
Cu2A N2A 1_555 1_555
Cu3A N3A 1_555 1_555
Cu4A N5A 1_555 1_555
N1A C2A 1_555 1_555
N2A N3A 1_555 1_555
N3A C3A 1_555 1_555
N4A Cu3A 1_555 1_555
N5A N6A 1_555 1_555
N6A Cu5 1_555 1_555
N7A Cu5 1_555 1_555
N8A Cu4A 1_555 1_555
N9A C9A 1_555 1_555
N10A C12A 1_555 1_555
N11A N12A 1_555 1_555
N12A C12A 1_555 1_555
C1A H1A 1_555 1_555
H2A C1A 1_555 1_555
H3A C1A 1_555 1_555
C2A N2A 1_555 1_555
C3A N1A 1_555 1_555
C4A C3A 1_555 1_555
H4A C4A 1_555 1_555
H5A C4A 1_555 1_555
C5A N4A 1_555 1_555
C6A N4A 1_555 1_555
C7A C6A 1_555 1_555
H6A C7A 1_555 1_555
H7A C7A 1_555 1_555
H8A C7A 1_555 1_555
C8A H9A 1_555 1_555
H10A C8A 1_555 1_555
H11A C8A 1_555 1_555
C9A N8A 1_555 1_555
C10A N7A 1_555 1_555
C11A C10A 1_555 1_555
H12A C11A 1_555 1_555
H13A C11A 1_555 1_555
C12A C11A 1_555 1_555
C13A N10A 1_555 1_555
C14A C13A 1_555 1_555
H14A C14A 1_555 1_555
H15A C14A 1_555 1_555
H16A C14A 1_555 1_555
Cu1_2 N1A 1_555 1_555
Cu2B N9 1_555 1_555
Cu2C N9A 1_555 1_555
Cu3B N11 1_555 1_555
Cu3C N11A 1_555 1_555
Cu4D N10A 1_555 1_555
Cu4E N10 1_555 1_555
N1A_2 Cu1 1_555 1_555
N9B Cu2 1_555 1_555
N9C Cu2A 1_555 1_555
N10D Cu4A 1_555 1_555
N10E Cu4 1_555 1_555
N11B Cu3 1_555 1_555
N11C Cu3A 1_555 1_555
N12B Cu2 1_555 1_555
N12C Cu2A 1_555 1_555
N5 C5 1_555 1_555
N7 N8 1_555 1_555
N9 C10 1_555 1_555
N11 C13 1_555 1_555
N12 Cu2B 1_555 1_555
C1 C2 1_555 1_555
C4 C5 1_555 1_555
C8 C9 1_555 1_555
C19 C20 1_555 1_555
N5A C5A 1_555 1_555
N6A C6A 1_555 1_555
N7A N8A 1_555 1_555
N9A C10A 1_555 1_555
N11A C13A 1_555 1_555
N12A Cu2C 1_555 1_555
C1A C2A 1_555 1_555
C4A C5A 1_555 1_555
C8A C9A 1_555 1_555
N11B N12B 1_555 1_555
N11C N12C 1_555 1_555

#END
