
#######################################################################
#
#                 Cambridge Crystallographic Data Centre
#                                CCDC 
#
#######################################################################
#
# If this CIF has been generated from an entry in the Cambridge 
# Structural Database, then it will include bibliographic, chemical, 
# crystal, experimental, refinement or atomic coordinate data resulting 
# from the CCDC's data processing and validation procedures.
#
#######################################################################

data_UVUQIN
_chemical_formula_moiety         '(C24 H30 Br2 Cd2 N6 O14)n'
_symmetry_cell_setting           monoclinic
_symmetry_space_group_name_H-M   'P 21/n'
_symmetry_Int_Tables_number      14
_space_group_name_Hall           '-P 2yn'
loop_
_symmetry_equiv_pos_site_id
_symmetry_equiv_pos_as_xyz
1 x,y,z
2 1/2-x,1/2+y,1/2-z
3 -x,-y,-z
4 1/2+x,1/2-y,1/2+z
_cell_length_a                   14.5649(15)
_cell_length_b                   7.8001(7)
_cell_length_c                   16.8042(17)
_cell_angle_alpha                90
_cell_angle_beta                 105.718(3)
_cell_angle_gamma                90
_cell_volume                     1837.7
loop_
_atom_site_label
_atom_site_type_symbol
_atom_site_fract_x
_atom_site_fract_y
_atom_site_fract_z
Cd1 Cd 0.13330(2) 0.34931(3) 1.15980(2)
Br1 Br -0.42584(3) -0.12566(5) 0.91909(2)
C1 C -0.1253(3) 0.0998(5) 1.0425(2)
C2 C -0.1549(2) 0.0747(4) 0.9575(2)
H1 H -0.1138 0.1055 0.9245
C3 C -0.2437(2) 0.0052(4) 0.92006(19)
C4 C -0.3027(2) -0.0374(4) 0.9696(2)
C5 C -0.2736(3) -0.0187(5) 1.0545(2)
H2 H -0.3139 -0.0533 1.0876
C6 C -0.1847(3) 0.0515(5) 1.0907(2)
H3 H -0.1642 0.0667 1.1489
C7 C -0.0310(3) 0.1835(5) 1.0796(2)
C8 C -0.2743(2) -0.0056(4) 0.8269(2)
C9 C 0.3036(3) 0.5365(5) 1.1055(3)
H4 H 0.3340 0.5700 1.1607
C10 C 0.2088(3) 0.4337(5) 0.9993(2)
H5 H 0.1553 0.3759 0.9646
C11 C 0.4213(3) 0.6675(5) 1.0383(4)
H6 H 0.4391 0.7460 1.0863
H7 H 0.4074 0.7380 0.9875
C12 C 0.5053(3) 0.5492(5) 1.0400(3)
H8 H 0.5644 0.6186 1.0514
H9 H 0.5125 0.4663 1.0859
N1 N 0.2237(2) 0.4474(4) 1.08218(19)
N2 N 0.2747(2) 0.5073(5) 0.9711(2)
N3 N 0.3348(2) 0.5722(4) 1.0407(2)
O1 O 0.01335(18) 0.2524(4) 1.03463(15)
O2 O 0.0024(2) 0.1805(4) 1.15839(16)
O3 O -0.2300(2) -0.1026(4) 0.79152(16)
O4 O -0.33817(18) 0.0966(3) 0.79172(14)
O5 O 0.0325(2) 0.5894(4) 1.12510(16)
H10 H 0.0510 0.6756 1.1690
H11 H 0.0381 0.6382 1.0729
C9B C 0.6964(3) 0.4635(5) 0.8945(3)
H4B H 0.6660 0.4300 0.8393
C10B C 0.7912(3) 0.5663(5) 1.0007(2)
H5B H 0.8447 0.6241 1.0354
C11B C 0.5787(3) 0.3325(5) 0.9617(4)
H6B H 0.5609 0.2540 0.9137
H7B H 0.5926 0.2620 1.0125
C12B C 0.4947(3) 0.4508(5) 0.9600(3)
H8B H 0.4356 0.3814 0.9486
H9B H 0.4875 0.5337 0.9141
N1B N 0.7763(2) 0.5526(4) 0.91782(19)
N2B N 0.7253(2) 0.4927(5) 1.0289(2)
N3B N 0.6652(2) 0.4278(4) 0.9593(2)
Cd1B Cd -0.13330(2) -0.34931(3) 0.84020(2)
Br1B Br 0.42584(3) 0.12566(5) 1.08091(2)
C1B C 0.1253(3) -0.0998(5) 0.9575(2)
C2B C 0.1549(2) -0.0747(4) 1.0425(2)
H1B H 0.1138 -0.1055 1.0755
C3B C 0.2437(2) -0.0052(4) 1.07994(19)
C4B C 0.3027(2) 0.0374(4) 1.0304(2)
C5B C 0.2736(3) 0.0187(5) 0.9455(2)
H2B H 0.3139 0.0533 0.9124
C6B C 0.1847(3) -0.0515(5) 0.9093(2)
H3B H 0.1642 -0.0667 0.8511
C7B C 0.0310(3) -0.1835(5) 0.9204(2)
C8B C 0.2743(2) 0.0056(4) 1.1731(2)
O1B O -0.01335(18) -0.2524(4) 0.96537(15)
O2B O -0.0024(2) -0.1805(4) 0.84161(16)
O3B O 0.2300(2) 0.1026(4) 1.20848(16)
O4B O 0.33817(18) -0.0966(3) 1.20828(14)
O5B O -0.0325(2) -0.5894(4) 0.87490(16)
H10B H -0.0510 -0.6756 0.8310
H11B H -0.0381 -0.6382 0.9271
Cd1A Cd 0.36670(2) -0.15069(3) 1.34020(2)
Cd1B_2 Cd 0.86670(2) 0.65069(3) 0.84020(2)
Cd1C Cd -0.36670(2) 0.15069(3) 0.65980(2)
N1B_2 N -0.2237(2) -0.4474(4) 0.91782(19)
O4A O -0.16183(18) -0.4034(3) 0.70828(14)
O4C O 0.16183(18) 0.4034(3) 1.29172(14)
O6 O 0.3796(3) 0.7557(7) 0.7882(3)
H12 H 0.3900 0.7545 0.8405
H13 H 0.4187 0.6889 0.7743
O7 O 0.9650(3) 0.1476(4) 0.76891(19)
H14 H 0.9785 0.0452 0.7852
H15 H 0.9374 0.1478 0.7174
O8 O 0.0904(6) 0.6893(12) 0.7190(4)
H16 H 0.0469 0.6512 0.7359
H17 H 0.0883 0.7935 0.7097
O9 O 0.2811(6) 0.4261(10) 0.8067(4)
H18 H 0.2634 0.3311 0.7818
H19 H 0.2350 0.4983 0.7901
loop_
_geom_bond_atom_site_label_1
_geom_bond_atom_site_label_2
_geom_bond_site_symmetry_1
_geom_bond_site_symmetry_2
Cd1 N1 1_555 1_555
Br1 C4 1_555 1_555
C1 C2 1_555 1_555
C2 H1 1_555 1_555
C3 C2 1_555 1_555
C4 C3 1_555 1_555
C5 C4 1_555 1_555
H2 C5 1_555 1_555
C6 C1 1_555 1_555
H3 C6 1_555 1_555
C7 C1 1_555 1_555
C8 C3 1_555 1_555
C9 H4 1_555 1_555
C10 H5 1_555 1_555
C11 H6 1_555 1_555
H7 C11 1_555 1_555
C12 C11 1_555 1_555
H8 C12 1_555 1_555
H9 C12 1_555 1_555
N1 C9 1_555 1_555
N2 C10 1_555 1_555
N3 C9 1_555 1_555
O1 Cd1 1_555 1_555
O2 Cd1 1_555 1_555
O3 C8 1_555 1_555
O4 C8 1_555 1_555
O5 Cd1 1_555 1_555
H10 O5 1_555 1_555
H11 O5 1_555 1_555
O6 H12 1_555 1_555
H13 O6 1_555 1_555
O7 H14 1_555 1_555
H15 O7 1_555 1_555
O8 H16 1_555 1_555
H17 O8 1_555 1_555
O9 H18 1_555 1_555
H19 O9 1_555 1_555
C9B H4B 1_555 1_555
C10B H5B 1_555 1_555
C11B H6B 1_555 1_555
H7B C11B 1_555 1_555
C12B C12 1_555 1_555
H8B C12B 1_555 1_555
H9B C12B 1_555 1_555
N1B C9B 1_555 1_555
N2B C10B 1_555 1_555
N3B C9B 1_555 1_555
Cd1B O3 1_555 1_555
Br1B C4B 1_555 1_555
C1B C2B 1_555 1_555
C2B H1B 1_555 1_555
C3B C2B 1_555 1_555
C4B C3B 1_555 1_555
C5B C4B 1_555 1_555
H2B C5B 1_555 1_555
C6B C1B 1_555 1_555
H3B C6B 1_555 1_555
C7B C1B 1_555 1_555
C8B C3B 1_555 1_555
O1B Cd1B 1_555 1_555
O2B Cd1B 1_555 1_555
O3B Cd1 1_555 1_555
O4B C8B 1_555 1_555
O5B Cd1B 1_555 1_555
H10B O5B 1_555 1_555
H11B O5B 1_555 1_555
Cd1A O4B 1_555 1_555
Cd1B_2 N1B 1_555 1_555
Cd1C O4 1_555 1_555
N1B_2 Cd1B 1_555 1_555
O4A Cd1B 1_555 1_555
O4C Cd1 1_555 1_555
C5 C6 1_555 1_555
C7 O1 1_555 1_555
C7 O2 1_555 1_555
C10 N1 1_555 1_555
C11 N3 1_555 1_555
N2 N3 1_555 1_555
C10B N1B 1_555 1_555
C11B C12B 1_555 1_555
C11B N3B 1_555 1_555
N2B N3B 1_555 1_555
C5B C6B 1_555 1_555
C7B O1B 1_555 1_555
C7B O2B 1_555 1_555
C8B O3B 1_555 1_555

#END
