
#######################################################################
#
#                 Cambridge Crystallographic Data Centre
#                                CCDC 
#
#######################################################################
#
# If this CIF has been generated from an entry in the Cambridge 
# Structural Database, then it will include bibliographic, chemical, 
# crystal, experimental, refinement or atomic coordinate data resulting 
# from the CCDC's data processing and validation procedures.
#
#######################################################################

data_ELOHOE
_chemical_formula_moiety         '(C84 H64 Cd3 N6 O14)n'
_symmetry_cell_setting           monoclinic
_symmetry_space_group_name_H-M   'P 2/c'
_symmetry_Int_Tables_number      13
_space_group_name_Hall           '-P 2yc'
loop_
_symmetry_equiv_pos_site_id
_symmetry_equiv_pos_as_xyz
1 x,y,z
2 -x,y,1/2-z
3 -x,-y,-z
4 x,-y,1/2+z
_cell_length_a                   11.4607(5)
_cell_length_b                   18.7956(8)
_cell_length_c                   22.7213(10)
_cell_angle_alpha                90
_cell_angle_beta                 96.8630(10)
_cell_angle_gamma                90
_cell_volume                     4859.34
loop_
_atom_site_label
_atom_site_type_symbol
_atom_site_fract_x
_atom_site_fract_y
_atom_site_fract_z
Cd1 Cd 0.64678(3) 0.024440(18) 0.056960(14)
Cd2 Cd 0.0000 0.5000 0.0000
N1 N 0.7617(3) 0.0788(2) -0.00889(18)
N2 N 1.5242(4) 0.0396(2) -0.38606(19)
N3 N 0.1166(5) 0.5663(3) -0.0560(3)
C1 C 0.7519(5) 0.1476(3) -0.0224(3)
H1 H 0.6924 0.1736 -0.0081
C2 C 0.8255(5) 0.1820(3) -0.0568(3)
H2 H 0.8152 0.2302 -0.0650
C3 C 0.9148(5) 0.1448(3) -0.0790(2)
C4 C 0.9246(5) 0.0750(4) -0.0649(3)
H3 H 0.9840 0.0479 -0.0783
C5 C 0.8479(5) 0.0438(3) -0.0311(3)
H4 H 0.8562 -0.0046 -0.0231
C6 C 0.9985(5) 0.1778(4) -0.1153(3)
H5 H 1.0580 0.1487 -0.1261
C7 C 0.9979(6) 0.2431(4) -0.1337(3)
H6 H 0.9399 0.2727 -0.1220
C8 C 1.0804(6) 0.2748(4) -0.1713(3)
C9 C 1.0834(8) 0.3470(4) -0.1768(4)
H7 H 1.0343 0.3747 -0.1563
C10 C 1.1574(9) 0.3800(4) -0.2118(4)
H8 H 1.1590 0.4294 -0.2140
C11 C 1.2285(8) 0.3405(4) -0.2434(3)
H9 H 1.2770 0.3628 -0.2678
C12 C 1.2278(6) 0.2685(4) -0.2390(3)
C13 C 1.1533(5) 0.2361(3) -0.2026(3)
H10 H 1.1533 0.1868 -0.1995
C14 C 1.3041(6) 0.2277(4) -0.2741(3)
H11 H 1.3595 0.2538 -0.2916
C15 C 1.3039(6) 0.1592(4) -0.2837(3)
H12 H 1.2480 0.1329 -0.2667
C16 C 1.3815(5) 0.1193(4) -0.3180(2)
C17 C 1.3608(5) 0.0489(4) -0.3306(3)
H13 H 1.2976 0.0261 -0.3166
C18 C 1.4322(5) 0.0118(3) -0.3637(3)
H14 H 1.4155 -0.0360 -0.3710
C19 C 1.5453(5) 0.1073(4) -0.3733(3)
H15 H 1.6098 0.1285 -0.3874
C20 C 1.4774(6) 0.1484(3) -0.3402(3)
H16 H 1.4966 0.1960 -0.3329
C21 C 0.1205(8) 0.6359(5) -0.0557(4)
H17 H 0.0755 0.6618 -0.0319
C22 C 0.1982(7) 0.6733(4) -0.0944(4)
H18 H 0.2021 0.7227 -0.0940
C23 C 0.2617(8) 0.6365(6) -0.1294(4)
C24 C 0.2534(9) 0.5671(6) -0.1271(4)
H19 H 0.2963 0.5394 -0.1508
C25 C 0.1836(9) 0.5349(5) -0.0909(4)
H20 H 0.1833 0.4854 -0.0909
C26 C 0.3406(7) 0.6738(6) -0.1690(4)
H21 H 0.3882 0.6441 -0.1886
C27 C 0.3498(6) 0.7358(5) -0.1783(3)
H22 H 0.3014 0.7658 -0.1595
C28 C 0.5000 0.7334(5) -0.2500
H23 H 0.5000 0.6839 -0.2500
C29 C 0.4271(5) 0.7699(4) -0.2154(2)
C30 C 0.4293(6) 0.8430(4) -0.2162(3)
H24 H 0.3818 0.8687 -0.1934
C31 C 0.5000 0.8776(6) -0.2500
H25 H 0.5000 0.9270 -0.2500
C32 C 0.2056(7) 0.3961(4) 0.0336(4)
C33 C 0.2616(5) 0.3233(3) 0.0322(3)
C34 C 0.2086(5) 0.2723(3) -0.0037(3)
H26 H 0.1381 0.2824 -0.0269
C35 C 0.2584(4) 0.2049(3) -0.0064(2)
H27 H 0.2203 0.1697 -0.0302
C36 C 0.3641(4) 0.1911(2) 0.0265(2)
C37 C 0.4167(5) 0.2428(3) 0.0617(3)
H28 H 0.4884 0.2333 0.0841
C38 C 0.3670(6) 0.3090(4) 0.0653(4)
H29 H 0.4045 0.3437 0.0899
C39 C 0.4209(4) 0.1190(3) 0.0243(2)
C40 C 0.8242(4) 0.0327(3) 0.1479(2)
C41 C 0.9150(4) 0.0328(3) 0.2009(2)
C42 C 0.9597(6) -0.0262(3) 0.2254(2)
H30 H 0.9354 -0.0696 0.2084
C43 C 0.9573(8) 0.0951(3) 0.2251(4)
H31 H 0.9296 0.1380 0.2086
O1 O 0.1010(5) 0.5447(3) 0.0889(3)
H32 H 0.0680 0.5242 0.1219
H33 H 0.1826 0.5321 0.0912
O2 O 0.2489(6) 0.4386(3) 0.0717(4)
O3 O 0.1161(4) 0.4061(2) -0.0015(2)
O4 O 0.3585(3) 0.06903(19) 0.00317(16)
O5 O 0.5254(3) 0.11564(19) 0.04569(18)
O6 O 0.8076(3) -0.0238(2) 0.11937(16)
O7 O 0.7656(3) 0.0862(2) 0.13425(16)
N3A N 0.8834(5) 0.5663(3) -0.4440(3)
C21A C 0.8795(8) 0.6359(5) -0.4443(4)
H17A H 0.9245 0.6618 -0.4681
C22A C 0.8018(7) 0.6733(4) -0.4056(4)
H18A H 0.7979 0.7227 -0.4060
C23A C 0.7383(8) 0.6365(6) -0.3706(4)
C24A C 0.7466(9) 0.5671(6) -0.3729(4)
H19A H 0.7037 0.5394 -0.3492
C25A C 0.8164(9) 0.5349(5) -0.4091(4)
H20A H 0.8167 0.4854 -0.4091
C26A C 0.6594(7) 0.6738(6) -0.3310(4)
H21A H 0.6118 0.6441 -0.3114
C27A C 0.6502(6) 0.7358(5) -0.3217(3)
H22A H 0.6986 0.7658 -0.3405
C29A C 0.5729(5) 0.7699(4) -0.2846(2)
C30A C 0.5707(6) 0.8430(4) -0.2838(3)
H24A H 0.6182 0.8687 -0.3066
C40A C 1.1758(4) 0.0327(3) 0.3521(2)
C41A C 1.0850(4) 0.0328(3) 0.2991(2)
C42A C 1.0403(6) -0.0262(3) 0.2746(2)
H30A H 1.0646 -0.0696 0.2916
C43A C 1.0427(8) 0.0951(3) 0.2749(4)
H31A H 1.0704 0.1380 0.2914
O6A O 1.1924(3) -0.0238(2) 0.38063(16)
O7A O 1.2344(3) 0.0862(2) 0.36575(16)
Cd1C Cd -0.35322(3) -0.024440(18) 0.556960(14)
N1C N -0.2383(3) -0.0788(2) 0.49111(18)
N2C N 0.5242(4) -0.0396(2) 0.11394(19)
C1C C -0.2481(5) -0.1476(3) 0.4776(3)
H1C H -0.3076 -0.1736 0.4919
C2C C -0.1745(5) -0.1820(3) 0.4432(3)
H2C H -0.1848 -0.2302 0.4350
C3C C -0.0852(5) -0.1448(3) 0.4210(2)
C4C C -0.0754(5) -0.0750(4) 0.4351(3)
H3C H -0.0160 -0.0479 0.4217
C5C C -0.1521(5) -0.0438(3) 0.4689(3)
H4C H -0.1438 0.0046 0.4769
C6C C -0.0015(5) -0.1778(4) 0.3847(3)
H5C H 0.0580 -0.1487 0.3739
C7C C -0.0021(6) -0.2431(4) 0.3663(3)
H6C H -0.0601 -0.2727 0.3780
C8C C 0.0804(6) -0.2748(4) 0.3287(3)
C9C C 0.0834(8) -0.3470(4) 0.3232(4)
H7C H 0.0343 -0.3747 0.3437
C10C C 0.1574(9) -0.3800(4) 0.2882(4)
H8C H 0.1590 -0.4294 0.2860
C11C C 0.2285(8) -0.3405(4) 0.2566(3)
H9C H 0.2770 -0.3628 0.2322
C12C C 0.2278(6) -0.2685(4) 0.2610(3)
C13C C 0.1533(5) -0.2361(3) 0.2974(3)
H10C H 0.1533 -0.1868 0.3005
C14C C 0.3041(6) -0.2277(4) 0.2259(3)
H11C H 0.3595 -0.2538 0.2084
C15C C 0.3039(6) -0.1592(4) 0.2163(3)
H12C H 0.2480 -0.1329 0.2333
C16C C 0.3815(5) -0.1193(4) 0.1820(2)
C17C C 0.3608(5) -0.0489(4) 0.1694(3)
H13C H 0.2976 -0.0261 0.1834
C18C C 0.4322(5) -0.0118(3) 0.1363(3)
H14C H 0.4155 0.0360 0.1290
C19C C 0.5453(5) -0.1073(4) 0.1267(3)
H15C H 0.6098 -0.1285 0.1126
C20C C 0.4774(6) -0.1484(3) 0.1598(3)
H16C H 0.4966 -0.1960 0.1671
C32C C -0.7944(7) -0.3961(4) 0.5336(4)
C33C C -0.7384(5) -0.3233(3) 0.5322(3)
C34C C -0.7914(5) -0.2723(3) 0.4963(3)
H26C H -0.8619 -0.2824 0.4731
C35C C -0.7416(4) -0.2049(3) 0.4936(2)
H27C H -0.7797 -0.1697 0.4698
C36C C -0.6359(4) -0.1911(2) 0.5265(2)
C37C C -0.5833(5) -0.2428(3) 0.5617(3)
H28C H -0.5116 -0.2333 0.5841
C38C C -0.6330(6) -0.3090(4) 0.5653(4)
H29C H -0.5955 -0.3437 0.5899
C39C C -0.5791(4) -0.1190(3) 0.5243(2)
O2C O -0.7511(6) -0.4386(3) 0.5717(4)
O3C O -0.8839(4) -0.4061(2) 0.4985(2)
O4C O -0.6415(3) -0.06903(19) 0.50317(16)
O5C O -0.4746(3) -0.11564(19) 0.54569(18)
O1B O -0.1010(5) 0.4553(3) -0.0889(3)
H32B H -0.0680 0.4758 -0.1219
H33B H -0.1826 0.4679 -0.0912
Cd1A Cd -0.64678(3) 0.024440(18) 0.443040(14)
Cd1A_2 Cd 1.35322(3) 0.024440(18) 0.443040(14)
Cd1B Cd 0.35322(3) -0.024440(18) -0.056960(14)
Cd1C_2 Cd 1.64678(3) -0.024440(18) -0.443040(14)
Cd2A Cd -1.0000 -0.5000 0.5000
Cd2A_2 Cd 1.0000 0.5000 -0.5000
N2_2 N -0.4758(4) 0.0396(2) 0.61394(19)
N3B N -0.1166(5) 0.4337(3) 0.0560(3)
O3B O -0.1161(4) 0.5939(2) 0.0015(2)
O4A O -0.3585(3) 0.06903(19) 0.49683(16)
O4B O 0.6415(3) -0.06903(19) -0.00317(16)
O6C O -0.1924(3) 0.0238(2) 0.61937(16)
O7C O -0.2344(3) -0.0862(2) 0.63425(16)
loop_
_geom_bond_atom_site_label_1
_geom_bond_atom_site_label_2
_geom_bond_site_symmetry_1
_geom_bond_site_symmetry_2
Cd1 N1 1_555 1_555
Cd2 N3 1_555 1_555
N1 C1 1_555 1_555
N2 C18 1_555 1_555
N3 C21 1_555 1_555
C1 H1 1_555 1_555
C2 C1 1_555 1_555
H2 C2 1_555 1_555
C3 C2 1_555 1_555
C4 C3 1_555 1_555
H3 C4 1_555 1_555
C5 N1 1_555 1_555
H4 C5 1_555 1_555
C6 C3 1_555 1_555
H5 C6 1_555 1_555
C7 C6 1_555 1_555
H6 C7 1_555 1_555
C8 C7 1_555 1_555
C9 C8 1_555 1_555
H7 C9 1_555 1_555
C10 C9 1_555 1_555
H8 C10 1_555 1_555
C11 C10 1_555 1_555
H9 C11 1_555 1_555
C12 C11 1_555 1_555
C13 C8 1_555 1_555
H10 C13 1_555 1_555
C14 C12 1_555 1_555
H11 C14 1_555 1_555
C15 C14 1_555 1_555
H12 C15 1_555 1_555
C16 C15 1_555 1_555
C17 C16 1_555 1_555
H13 C17 1_555 1_555
C18 C17 1_555 1_555
H14 C18 1_555 1_555
C19 N2 1_555 1_555
H15 C19 1_555 1_555
C20 C16 1_555 1_555
H16 C20 1_555 1_555
C21 H17 1_555 1_555
C22 C21 1_555 1_555
H18 C22 1_555 1_555
C23 C22 1_555 1_555
C24 C23 1_555 1_555
H19 C24 1_555 1_555
C25 N3 1_555 1_555
H20 C25 1_555 1_555
C26 C23 1_555 1_555
H21 C26 1_555 1_555
C27 C26 1_555 1_555
H22 C27 1_555 1_555
C28 H23 1_555 1_555
C29 C27 1_555 1_555
C30 C29 1_555 1_555
H24 C30 1_555 1_555
C31 C30 1_555 1_555
H25 C31 1_555 1_555
C32 C33 1_555 1_555
C33 C34 1_555 1_555
C34 H26 1_555 1_555
C35 C34 1_555 1_555
H27 C35 1_555 1_555
C36 C35 1_555 1_555
C37 C36 1_555 1_555
H28 C37 1_555 1_555
C38 C33 1_555 1_555
H29 C38 1_555 1_555
C39 C36 1_555 1_555
C40 C41 1_555 1_555
C41 C42 1_555 1_555
C42 H30 1_555 1_555
C43 C41 1_555 1_555
H31 C43 1_555 1_555
O1 Cd2 1_555 1_555
H32 O1 1_555 1_555
H33 O1 1_555 1_555
O2 C32 1_555 1_555
O3 Cd2 1_555 1_555
O4 C39 1_555 1_555
O5 Cd1 1_555 1_555
O6 Cd1 1_555 1_555
O7 Cd1 1_555 1_555
N3A C21A 1_555 1_555
C21A H17A 1_555 1_555
C22A C21A 1_555 1_555
H18A C22A 1_555 1_555
C23A C22A 1_555 1_555
C24A C23A 1_555 1_555
H19A C24A 1_555 1_555
C25A N3A 1_555 1_555
H20A C25A 1_555 1_555
C26A C23A 1_555 1_555
H21A C26A 1_555 1_555
C27A C26A 1_555 1_555
H22A C27A 1_555 1_555
C29A C28 1_555 1_555
C30A C31 1_555 1_555
H24A C30A 1_555 1_555
C40A C41A 1_555 1_555
C41A C42A 1_555 1_555
C42A C42 1_555 1_555
H30A C42A 1_555 1_555
C43A C43 1_555 1_555
H31A C43A 1_555 1_555
O6A C40A 1_555 1_555
O7A C40A 1_555 1_555
Cd1C N1C 1_555 1_555
N1C C1C 1_555 1_555
N2C Cd1 1_555 1_555
C1C H1C 1_555 1_555
C2C C1C 1_555 1_555
H2C C2C 1_555 1_555
C3C C2C 1_555 1_555
C4C C3C 1_555 1_555
H3C C4C 1_555 1_555
C5C N1C 1_555 1_555
H4C C5C 1_555 1_555
C6C C3C 1_555 1_555
H5C C6C 1_555 1_555
C7C C6C 1_555 1_555
H6C C7C 1_555 1_555
C8C C7C 1_555 1_555
C9C C8C 1_555 1_555
H7C C9C 1_555 1_555
C10C C9C 1_555 1_555
H8C C10C 1_555 1_555
C11C C10C 1_555 1_555
H9C C11C 1_555 1_555
C12C C11C 1_555 1_555
C13C C8C 1_555 1_555
H10C C13C 1_555 1_555
C14C C12C 1_555 1_555
H11C C14C 1_555 1_555
C15C C14C 1_555 1_555
H12C C15C 1_555 1_555
C16C C15C 1_555 1_555
C17C C16C 1_555 1_555
H13C C17C 1_555 1_555
C18C N2C 1_555 1_555
H14C C18C 1_555 1_555
C19C N2C 1_555 1_555
H15C C19C 1_555 1_555
C20C C16C 1_555 1_555
H16C C20C 1_555 1_555
C32C C33C 1_555 1_555
C33C C34C 1_555 1_555
C34C H26C 1_555 1_555
C35C C34C 1_555 1_555
H27C C35C 1_555 1_555
C36C C35C 1_555 1_555
C37C C36C 1_555 1_555
H28C C37C 1_555 1_555
C38C C33C 1_555 1_555
H29C C38C 1_555 1_555
C39C C36C 1_555 1_555
O2C C32C 1_555 1_555
O3C C32C 1_555 1_555
O4C C39C 1_555 1_555
O5C Cd1C 1_555 1_555
O1B Cd2 1_555 1_555
H32B O1B 1_555 1_555
H33B O1B 1_555 1_555
Cd1A O4C 1_555 1_555
Cd1A_2 O6A 1_555 1_555
Cd1B O4 1_555 1_555
Cd1C_2 N2 1_555 1_555
Cd2A O3C 1_555 1_555
Cd2A_2 N3A 1_555 1_555
N2_2 Cd1C 1_555 1_555
N3B Cd2 1_555 1_555
O3B Cd2 1_555 1_555
O4A Cd1C 1_555 1_555
O4B Cd1 1_555 1_555
O6C Cd1C 1_555 1_555
O7C Cd1C 1_555 1_555
C4 C5 1_555 1_555
C12 C13 1_555 1_555
C19 C20 1_555 1_555
C24 C25 1_555 1_555
C28 C29 1_555 1_555
C32 O3 1_555 1_555
C37 C38 1_555 1_555
C39 O5 1_555 1_555
C40 O6 1_555 1_555
C40 O7 1_555 1_555
C24A C25A 1_555 1_555
C27A C29A 1_555 1_555
C29A C30A 1_555 1_555
C41A C43A 1_555 1_555
O7A Cd1A_2 1_555 1_555
C4C C5C 1_555 1_555
C12C C13C 1_555 1_555
C17C C18C 1_555 1_555
C19C C20C 1_555 1_555
C37C C38C 1_555 1_555
C39C O5C 1_555 1_555

#END
