
#######################################################################
#
#                 Cambridge Crystallographic Data Centre
#                                CCDC 
#
#######################################################################
#
# If this CIF has been generated from an entry in the Cambridge 
# Structural Database, then it will include bibliographic, chemical, 
# crystal, experimental, refinement or atomic coordinate data resulting 
# from the CCDC's data processing and validation procedures.
#
#######################################################################

data_HADLIK
_chemical_formula_moiety         'C36 H16 Co10 F8 N19'
_symmetry_cell_setting           tetragonal
_symmetry_space_group_name_H-M   'P 43 2 2'
_symmetry_Int_Tables_number      95
_space_group_name_Hall           'P 4cw 2c'
loop_
_symmetry_equiv_pos_site_id
_symmetry_equiv_pos_as_xyz
1 x,y,z
2 -y,x,3/4+z
3 -x,-y,1/2+z
4 y,-x,1/4+z
5 x,-y,1/2-z
6 -x,y,-z
7 y,x,1/4-z
8 -y,-x,3/4-z
_cell_length_a                   13.2891(5)
_cell_length_b                   13.2891(5)
_cell_length_c                   43.2262(19)
_cell_angle_alpha                90
_cell_angle_beta                 90
_cell_angle_gamma                90
_cell_volume                     7633.75
loop_
_atom_site_label
_atom_site_type_symbol
_atom_site_fract_x
_atom_site_fract_y
_atom_site_fract_z
Co1 Co -0.00214(4) 0.02954(5) 0.04197(2)
Co2 Co -0.00084(3) -0.00084(3) 0.1250
N1 N 0.1208(3) 0.0299(4) 0.06819(9)
N2 N 0.1187(2) 0.0036(4) 0.09808(8)
N3 N 0.8764(3) 0.0248(3) 0.06841(8)
N4 N 0.8765(2) 0.0021(4) 0.09927(8)
N5 N -0.0049(4) -0.0916(3) 0.01533(8)
N6 N 0.0036(4) -0.8479(3) 0.01602(8)
C1 C 0.2150(3) 0.0411(6) 0.05968(12)
H1 H 0.2359 0.0624 0.0402
C2 C 0.2788(3) 0.0165(5) 0.08385(11)
C3 C 0.2147(3) 0.0001(6) 0.10724(11)
H2 H 0.2346 -0.0122 0.1275
C4 C 0.3906(3) 0.0159(6) 0.08382(11)
C5 C 0.4467(4) 0.0339(8) 0.05704(13)
H3 H 0.4133 0.0470 0.0386
C6 C 0.5507(4) 0.0326(8) 0.05736(13)
H4 H 0.5853 0.0440 0.0390
C7 C 0.6049(3) 0.0152(6) 0.08391(11)
C8 C 0.5499(4) 0.0010(8) 0.11007(12)
C9 C 0.4448(4) -0.0027(8) 0.11014(12)
C10 C 0.7801(3) 0.0299(5) 0.05954(11)
H5 H 0.7592 0.0422 0.0393
C11 C 0.7162(3) 0.0148(5) 0.08387(11)
C12 C 0.7809(3) -0.0055(6) 0.10854(11)
H6 H 0.7605 -0.0220 0.1285
C13 C -0.0136(5) -0.1859(4) 0.02427(11)
H7 H -0.0272 -0.2061 0.0444
C14 C -0.0000 -0.2501(5) 0.0000
C15 C -0.0000 -0.3621(5) 0.0000
C16 C -0.0004(9) -0.4191(4) 0.02693(12)
C17 C -0.0042(9) -0.5215(4) 0.02669(12)
C18 C -0.0000 -0.5772(5) 0.0000
C19 C -0.0000 -0.6879(5) 0.0000
C20 C 0.0009(6) -0.7536(3) 0.02476(11)
H8 H -0.0002 -0.7332 0.0453
F1 F 0.5938(3) -0.0238(9) 0.13780(10)
F2 F 0.3987(3) -0.0190(9) 0.13741(11)
F3 F -0.0043(16) -0.3715(5) 0.05448(15)
F4 F -0.0035(16) -0.5655(5) 0.05463(16)
N5E N 0.0049(4) -0.0916(3) -0.01533(8)
C13E C 0.0136(5) -0.1859(4) -0.02427(11)
H7E H 0.0272 -0.2061 -0.0444
C16E C 0.0004(9) -0.4191(4) -0.02693(12)
C17E C 0.0042(9) -0.5215(4) -0.02669(12)
C20E C -0.0009(6) -0.7536(3) -0.02476(11)
H8E H 0.0002 -0.7332 -0.0453
F3E F 0.0043(16) -0.3715(5) -0.05448(15)
F4E F 0.0035(16) -0.5655(5) -0.05463(16)
N6E N -0.0036(4) -0.8479(3) -0.01602(8)
Co1E Co 0.00214(4) 0.02954(5) -0.04197(2)
N1E N -0.1208(3) 0.0299(4) -0.06819(9)
N2E N -0.1187(2) 0.0036(4) -0.09808(8)
N3E N -0.8764(3) 0.0248(3) -0.06841(8)
N4E N -0.8765(2) 0.0021(4) -0.09927(8)
C1E C -0.2150(3) 0.0411(6) -0.05968(12)
H1E H -0.2359 0.0624 -0.0402
C2E C -0.2788(3) 0.0165(5) -0.08385(11)
C3E C -0.2147(3) 0.0001(6) -0.10724(11)
H2E H -0.2346 -0.0122 -0.1275
C4E C -0.3906(3) 0.0159(6) -0.08382(11)
C5E C -0.4467(4) 0.0339(8) -0.05704(13)
H3E H -0.4133 0.0470 -0.0386
C6E C -0.5507(4) 0.0326(8) -0.05736(13)
H4E H -0.5853 0.0440 -0.0390
C7E C -0.6049(3) 0.0152(6) -0.08391(11)
C8E C -0.5499(4) 0.0010(8) -0.11007(12)
C9E C -0.4448(4) -0.0027(8) -0.11014(12)
C10E C -0.7801(3) 0.0299(5) -0.05954(11)
H5E H -0.7592 0.0422 -0.0393
C11E C -0.7162(3) 0.0148(5) -0.08387(11)
C12E C -0.7809(3) -0.0055(6) -0.10854(11)
H6E H -0.7605 -0.0220 -0.1285
F1E F -0.5938(3) -0.0238(9) -0.13780(10)
F2E F -0.3987(3) -0.0190(9) -0.13741(11)
Co1_2 Co -0.00214(4) -0.97046(5) 0.04197(2)
Co1_3 Co 0.99786(4) 0.02954(5) 0.04197(2)
Co1E_2 Co -0.99786(4) 0.02954(5) -0.04197(2)
Co1E_3 Co 0.00214(4) -0.97046(5) -0.04197(2)
Co2_2 Co 0.99916(3) -0.00084(3) 0.1250
Co2A Co -0.99916(3) -0.00084(3) -0.1250
Co2A_2 Co 0.00084(3) -0.00084(3) -0.1250
N2F N 0.0036(4) 0.1187(2) 0.15192(8)
N3_2 N -0.1236(3) 0.0248(3) 0.06841(8)
N3E_2 N 0.1236(3) 0.0248(3) -0.06841(8)
N4_2 N -0.1235(2) 0.0021(4) 0.09927(8)
N4F N 0.0021(4) -0.1235(2) 0.15073(8)
N6_2 N 0.0036(4) 0.1521(3) 0.01602(8)
N6E_2 N -0.0036(4) 0.1521(3) -0.01602(8)
loop_
_geom_bond_atom_site_label_1
_geom_bond_atom_site_label_2
_geom_bond_site_symmetry_1
_geom_bond_site_symmetry_2
Co1 N1 1_555 1_555
Co2 N2 1_555 1_555
N1 N2 1_555 1_555
N2 C3 1_555 1_555
N3 N4 1_555 1_555
N4 C12 1_555 1_555
N5 Co1 1_555 1_555
N6 C20 1_555 1_555
C1 N1 1_555 1_555
H1 C1 1_555 1_555
C2 C1 1_555 1_555
C3 C2 1_555 1_555
H2 C3 1_555 1_555
C4 C2 1_555 1_555
C5 C4 1_555 1_555
H3 C5 1_555 1_555
C6 C5 1_555 1_555
H4 C6 1_555 1_555
C7 C6 1_555 1_555
C8 C7 1_555 1_555
C9 C4 1_555 1_555
C10 N3 1_555 1_555
H5 C10 1_555 1_555
C11 C7 1_555 1_555
C12 C11 1_555 1_555
H6 C12 1_555 1_555
C13 N5 1_555 1_555
H7 C13 1_555 1_555
C14 C13 1_555 1_555
C15 C14 1_555 1_555
C16 C15 1_555 1_555
C17 C16 1_555 1_555
C18 C17 1_555 1_555
C19 C18 1_555 1_555
C20 C19 1_555 1_555
H8 C20 1_555 1_555
F1 C8 1_555 1_555
F2 C9 1_555 1_555
F3 C16 1_555 1_555
F4 C17 1_555 1_555
N5E N5 1_555 1_555
C13E C14 1_555 1_555
H7E C13E 1_555 1_555
C16E C15 1_555 1_555
C17E C18 1_555 1_555
C20E C19 1_555 1_555
H8E C20E 1_555 1_555
F3E C16E 1_555 1_555
F4E C17E 1_555 1_555
N6E N6 1_555 1_555
Co1E N5E 1_555 1_555
N1E Co1E 1_555 1_555
N2E N1E 1_555 1_555
N3E N4E 1_555 1_555
N4E C12E 1_555 1_555
C1E N1E 1_555 1_555
H1E C1E 1_555 1_555
C2E C1E 1_555 1_555
C3E N2E 1_555 1_555
H2E C3E 1_555 1_555
C4E C2E 1_555 1_555
C5E C4E 1_555 1_555
H3E C5E 1_555 1_555
C6E C5E 1_555 1_555
H4E C6E 1_555 1_555
C7E C6E 1_555 1_555
C8E C7E 1_555 1_555
C9E C4E 1_555 1_555
C10E N3E 1_555 1_555
H5E C10E 1_555 1_555
C11E C7E 1_555 1_555
C12E C11E 1_555 1_555
H6E C12E 1_555 1_555
F1E C8E 1_555 1_555
F2E C9E 1_555 1_555
Co1_2 N6 1_555 1_555
Co1_3 N3 1_555 1_555
Co1E_2 N3E 1_555 1_555
Co1E_3 N6E 1_555 1_555
Co2_2 N4 1_555 1_555
Co2A N4E 1_555 1_555
Co2A_2 N2E 1_555 1_555
N2F Co2 1_555 1_555
N3_2 Co1 1_555 1_555
N3E_2 Co1E 1_555 1_555
N4_2 Co2 1_555 1_555
N4F Co2 1_555 1_555
N6_2 Co1 1_555 1_555
N6E_2 Co1E 1_555 1_555
C8 C9 1_555 1_555
C10 C11 1_555 1_555
N5E C13E 1_555 1_555
C16E C17E 1_555 1_555
C20E N6E 1_555 1_555
C2E C3E 1_555 1_555
C8E C9E 1_555 1_555
C10E C11E 1_555 1_555
N3_2 N4_2 1_555 1_555
N6_2 N6E_2 1_555 1_555

#END
