
#######################################################################
#
#                 Cambridge Crystallographic Data Centre
#                                CCDC 
#
#######################################################################
#
# If this CIF has been generated from an entry in the Cambridge 
# Structural Database, then it will include bibliographic, chemical, 
# crystal, experimental, refinement or atomic coordinate data resulting 
# from the CCDC's data processing and validation procedures.
#
#######################################################################

data_HADLOQ01
_chemical_formula_moiety         '(C12 H8 Co1 N4)n'
_symmetry_cell_setting           tetragonal
_symmetry_space_group_name_H-M   'P 43 2 2'
_symmetry_Int_Tables_number      95
_space_group_name_Hall           'P 4cw 2c'
loop_
_symmetry_equiv_pos_site_id
_symmetry_equiv_pos_as_xyz
1 x,y,z
2 -x,-y,1/2+z
3 -y,x,3/4+z
4 y,-x,1/4+z
5 -x,y,-z
6 x,-y,1/2-z
7 y,x,1/4-z
8 -y,-x,3/4-z
_cell_length_a                   13.2909(5)
_cell_length_b                   13.2909(5)
_cell_length_c                   14.3560(6)
_cell_angle_alpha                90
_cell_angle_beta                 90
_cell_angle_gamma                90
_cell_volume                     2535.96
loop_
_atom_site_label
_atom_site_type_symbol
_atom_site_fract_x
_atom_site_fract_y
_atom_site_fract_z
Co1 Co -0.01088(2) -0.01088(2) 0.1250
N1 N 0.11116(13) -0.00718(19) 0.20313(11)
N2 N 0.86751(13) 0.01515(18) 0.29506(12)
C1 C 0.20793(17) -0.0108(3) 0.17550(17)
H1 H 0.2286 -0.0194 0.1141
C2 C 0.2724(2) -0.0000 0.2500
C3 C 0.3835(2) -0.0000 0.2500
C4 C 0.43648(19) 0.0233(3) 0.32953(19)
D1 D 0.4020 0.0402 0.3837
C5 C 0.5417(2) 0.0219(3) 0.32961(19)
D2 D 0.5759 0.0361 0.3846
C6 C 0.5961(2) -0.0000 0.2500
C7 C 0.7071(2) -0.0000 0.2500
C8 C 0.77138(16) 0.0245(3) 0.32160(16)
H2 H 0.7508 0.0449 0.3806
N1E N 0.11116(13) 0.00718(19) 0.29687(11)
N2E N 0.86751(13) -0.01515(18) 0.20494(12)
C1E C 0.20793(17) 0.0108(3) 0.32450(17)
H1E H 0.2286 0.0194 0.3859
C4E C 0.43648(19) -0.0233(3) 0.17047(19)
D1E D 0.4020 -0.0402 0.1163
C5E C 0.5417(2) -0.0219(3) 0.17039(19)
D2E D 0.5759 -0.0361 0.1154
C8E C 0.77138(16) -0.0245(3) 0.17840(16)
H2E H 0.7508 -0.0449 0.1194
Co1_2 Co 0.98912(2) -0.01088(2) 0.1250
Co1C Co -0.01088(2) 0.01088(2) 0.3750
Co1C_2 Co 0.98912(2) 0.01088(2) 0.3750
N1F N -0.00718(19) 0.11116(13) 0.04687(11)
N2B N -0.01515(18) -0.13249(13) 0.04506(12)
N2E_2 N -0.13249(13) -0.01515(18) 0.20494(12)
loop_
_geom_bond_atom_site_label_1
_geom_bond_atom_site_label_2
_geom_bond_site_symmetry_1
_geom_bond_site_symmetry_2
Co1 N1 1_555 1_555
N1 C1 1_555 1_555
N2 C8 1_555 1_555
C1 H1 1_555 1_555
C2 C1 1_555 1_555
C3 C2 1_555 1_555
C4 C3 1_555 1_555
D1 C4 1_555 1_555
C5 C4 1_555 1_555
D2 C5 1_555 1_555
C6 C5 1_555 1_555
C7 C6 1_555 1_555
C8 C7 1_555 1_555
H2 C8 1_555 1_555
N1E N1 1_555 1_555
N2E N2 1_555 1_555
C1E C2 1_555 1_555
H1E C1E 1_555 1_555
C4E C3 1_555 1_555
D1E C4E 1_555 1_555
C5E C6 1_555 1_555
D2E C5E 1_555 1_555
C8E C7 1_555 1_555
H2E C8E 1_555 1_555
Co1_2 N2E 1_555 1_555
Co1C N1E 1_555 1_555
Co1C_2 N2 1_555 1_555
N1F Co1 1_555 1_555
N2B Co1 1_555 1_555
N2E_2 Co1 1_555 1_555
N1E C1E 1_555 1_555
N2E C8E 1_555 1_555
C4E C5E 1_555 1_555

#END
