
#######################################################################
#
#                 Cambridge Crystallographic Data Centre
#                                CCDC 
#
#######################################################################
#
# If this CIF has been generated from an entry in the Cambridge 
# Structural Database, then it will include bibliographic, chemical, 
# crystal, experimental, refinement or atomic coordinate data resulting 
# from the CCDC's data processing and validation procedures.
#
#######################################################################

data_HADLOQ
_chemical_formula_moiety         '(C12 H8 Co1 N4)n'
_symmetry_cell_setting           tetragonal
_symmetry_space_group_name_H-M   'P 41 2 2'
_symmetry_Int_Tables_number      91
_space_group_name_Hall           'P 4w 2c'
loop_
_symmetry_equiv_pos_site_id
_symmetry_equiv_pos_as_xyz
1 x,y,z
2 -x,-y,1/2+z
3 -y,x,1/4+z
4 y,-x,3/4+z
5 -x,y,-z
6 x,-y,1/2-z
7 y,x,3/4-z
8 -y,-x,1/4-z
_cell_length_a                   13.2708(4)
_cell_length_b                   13.2708(4)
_cell_length_c                   14.3502(5)
_cell_angle_alpha                90
_cell_angle_beta                 90
_cell_angle_gamma                90
_cell_volume                     2527.27
loop_
_atom_site_label
_atom_site_type_symbol
_atom_site_fract_x
_atom_site_fract_y
_atom_site_fract_z
Co1 Co 0.98884(2) 0.98884(2) 0.3750
N1 N 0.86742(15) 0.9840(2) 0.29491(14)
N2 N 0.11114(15) 1.0065(2) 0.20340(14)
C1 C 0.77203(19) 0.9752(3) 0.3214(2)
H1 H 0.7512 0.9546 0.3818
C2 C 0.2716(3) 1.0000 0.2500
C3 C 0.7071(3) 1.0000 0.2500
C4 C 0.2071(2) 1.0101(3) 0.1757(2)
H2 H 0.2280 1.0186 0.1129
C5 C 0.5955(3) 1.0000 0.2500
C6 C 0.3839(3) 1.0000 0.2500
C7 C 0.4377(2) 1.0226(4) 0.1711(2)
H3 H 0.4027 1.0396 0.1156
C8 C 0.5411(2) 1.0211(4) 0.1708(2)
H4 H 0.5759 1.0350 0.1145
N1E N 0.86742(15) 1.0160(2) 0.20509(14)
N2E N 0.11114(15) 0.9935(2) 0.29660(14)
C1E C 0.77203(19) 1.0248(3) 0.1786(2)
H1E H 0.7512 1.0454 0.1182
C4E C 0.2071(2) 0.9899(3) 0.3243(2)
H2E H 0.2280 0.9814 0.3871
C7E C 0.4377(2) 0.9774(4) 0.3289(2)
H3E H 0.4027 0.9604 0.3844
C8E C 0.5411(2) 0.9789(4) 0.3292(2)
H4E H 0.5759 0.9650 0.3855
Co1_2 Co -0.01116(2) 0.98884(2) 0.3750
Co1C Co -0.01116(2) 1.01116(2) 0.1250
Co1C_2 Co 0.98884(2) 1.01116(2) 0.1250
N1F N 0.9840(2) 0.86742(15) 0.45509(14)
N2B N 0.9935(2) 1.11114(15) 0.45340(14)
N2E_2 N 1.11114(15) 0.9935(2) 0.29660(14)
loop_
_geom_bond_atom_site_label_1
_geom_bond_atom_site_label_2
_geom_bond_site_symmetry_1
_geom_bond_site_symmetry_2
Co1 N1 1_555 1_555
N1 C1 1_555 1_555
N2 C4 1_555 1_555
C1 H1 1_555 1_555
C2 C4 1_555 1_555
C3 C1 1_555 1_555
C4 H2 1_555 1_555
C5 C3 1_555 1_555
C6 C2 1_555 1_555
C7 C6 1_555 1_555
H3 C7 1_555 1_555
C8 C5 1_555 1_555
H4 C8 1_555 1_555
N1E N1 1_555 1_555
N2E N2 1_555 1_555
C1E C3 1_555 1_555
H1E C1E 1_555 1_555
C4E C2 1_555 1_555
H2E C4E 1_555 1_555
C7E C6 1_555 1_555
H3E C7E 1_555 1_555
C8E C5 1_555 1_555
H4E C8E 1_555 1_555
Co1_2 N2E 1_555 1_555
Co1C N2 1_555 1_555
Co1C_2 N1E 1_555 1_555
N1F Co1 1_555 1_555
N2B Co1 1_555 1_555
N2E_2 Co1 1_555 1_555
C7 C8 1_555 1_555
N1E C1E 1_555 1_555
N2E C4E 1_555 1_555
C7E C8E 1_555 1_555

#END
