
#######################################################################
#
#                 Cambridge Crystallographic Data Centre
#                                CCDC 
#
#######################################################################
#
# If this CIF has been generated from an entry in the Cambridge 
# Structural Database, then it will include bibliographic, chemical, 
# crystal, experimental, refinement or atomic coordinate data resulting 
# from the CCDC's data processing and validation procedures.
#
#######################################################################

data_HADLUW
_chemical_formula_moiety         'C12 H6 Co4 F2 N7'
_symmetry_cell_setting           tetragonal
_symmetry_space_group_name_H-M   'P 43 2 2'
_symmetry_Int_Tables_number      95
_space_group_name_Hall           'P 4cw 2c'
loop_
_symmetry_equiv_pos_site_id
_symmetry_equiv_pos_as_xyz
1 x,y,z
2 -x,-y,1/2+z
3 -y,x,3/4+z
4 y,-x,1/4+z
5 -x,y,-z
6 x,-y,1/2-z
7 y,x,1/4-z
8 -y,-x,3/4-z
_cell_length_a                   13.3100(5)
_cell_length_b                   13.3100(5)
_cell_length_c                   13.9569(6)
_cell_angle_alpha                90
_cell_angle_beta                 90
_cell_angle_gamma                90
_cell_volume                     2472.55
loop_
_atom_site_label
_atom_site_type_symbol
_atom_site_fract_x
_atom_site_fract_y
_atom_site_fract_z
Co1 Co 0.98028(3) 0.98028(3) 0.6250
N1 N 0.9812(3) 0.85829(18) 0.54577(18)
N2 N 1.0175(3) 0.10280(18) 0.45463(18)
C1 C 0.9700(3) 0.7625(2) 0.5726(2)
H1 H 0.9448 0.7417 0.6331
C2 C 1.0000 0.2626(3) 0.5000
C3 C 1.0000 0.6974(4) 0.5000
C4 C 1.0269(4) 0.1993(3) 0.4274(3)
H2 H 1.0492 0.2205 0.3660
C5 C 1.0000 0.3739(4) 0.5000
C6 C 1.0000 0.5882(3) 0.5000
C7 C 1.0287(4) 0.4284(3) 0.4207(3)
H3 H 1.0493 0.3936 0.3646
C8 C 1.0285(4) 0.5330(3) 0.4203(3)
F1 F 1.0545(16) 0.5760(8) 0.3393(7)
N1D N 1.0188(3) 0.85829(18) 0.45423(18)
N2D N 0.9825(3) 0.10280(18) 0.54537(18)
C1D C 1.0300(3) 0.7625(2) 0.4274(2)
H1D H 1.0552 0.7417 0.3669
C4D C 0.9731(4) 0.1993(3) 0.5726(3)
H2D H 0.9508 0.2205 0.6340
C7D C 0.9713(4) 0.4284(3) 0.5793(3)
H3D H 0.9507 0.3936 0.6354
C8D C 0.9715(4) 0.5330(3) 0.5797(3)
F1D F 0.9455(16) 0.5760(8) 0.6607(7)
Co1_2 Co 0.98028(3) -0.01972(3) 0.6250
Co1B Co 1.01972(3) -0.01972(3) 0.3750
Co1B_2 Co 1.01972(3) 0.98028(3) 0.3750
N1F N 0.85829(18) 0.9812(3) 0.70423(18)
N2C N 1.10280(18) 0.9825(3) 0.70463(18)
N2D_2 N 0.9825(3) 1.10280(18) 0.54537(18)
loop_
_geom_bond_atom_site_label_1
_geom_bond_atom_site_label_2
_geom_bond_site_symmetry_1
_geom_bond_site_symmetry_2
Co1 N1 1_555 1_555
N1 C1 1_555 1_555
N2 C4 1_555 1_555
C1 H1 1_555 1_555
C2 C4 1_555 1_555
C3 C1 1_555 1_555
C4 H2 1_555 1_555
C5 C2 1_555 1_555
C6 C3 1_555 1_555
C7 C5 1_555 1_555
H3 C7 1_555 1_555
C8 C6 1_555 1_555
F1 C8 1_555 1_555
N1D N1 1_555 1_555
N2D N2 1_555 1_555
C1D C3 1_555 1_555
H1D C1D 1_555 1_555
C4D C2 1_555 1_555
H2D C4D 1_555 1_555
C7D C5 1_555 1_555
H3D C7D 1_555 1_555
C8D C6 1_555 1_555
F1D C8D 1_555 1_555
Co1_2 N2D 1_555 1_555
Co1B N2 1_555 1_555
Co1B_2 N1D 1_555 1_555
N1F Co1 1_555 1_555
N2C Co1 1_555 1_555
N2D_2 Co1 1_555 1_555
C7 C8 1_555 1_555
N1D C1D 1_555 1_555
N2D C4D 1_555 1_555
C7D C8D 1_555 1_555

#END
