
#######################################################################
#
#                 Cambridge Crystallographic Data Centre
#                                CCDC 
#
#######################################################################
#
# If this CIF has been generated from an entry in the Cambridge 
# Structural Database, then it will include bibliographic, chemical, 
# crystal, experimental, refinement or atomic coordinate data resulting 
# from the CCDC's data processing and validation procedures.
#
#######################################################################

data_HADMAD01
_chemical_formula_moiety         '(C12 H6 Co1 F2 N4)n'
_symmetry_cell_setting           tetragonal
_symmetry_space_group_name_H-M   'P 43'
_symmetry_Int_Tables_number      78
_space_group_name_Hall           'P 4cw'
loop_
_symmetry_equiv_pos_site_id
_symmetry_equiv_pos_as_xyz
1 x,y,z
2 -x,-y,1/2+z
3 -y,x,3/4+z
4 y,-x,1/4+z
_cell_length_a                   13.2715(5)
_cell_length_b                   13.2715(5)
_cell_length_c                   14.6258(6)
_cell_angle_alpha                90
_cell_angle_beta                 90
_cell_angle_gamma                90
_cell_volume                     2576.08
loop_
_atom_site_label
_atom_site_type_symbol
_atom_site_fract_x
_atom_site_fract_y
_atom_site_fract_z
Co1 Co 0.50752(6) 0.51205(4) 0.62164(14)
N1 N 0.4850(5) 1.3911(4) 0.4537(3)
N2 N 0.4867(4) 0.6284(4) 0.4469(3)
N3 N 0.5006(4) 0.6334(3) 0.5402(3)
C1 C 0.4768(6) 1.2930(4) 0.4268(4)
H1 H 0.4594 1.2727 0.3680
C2 C 0.4883(6) 0.7237(4) 0.4183(4)
H2 H 0.4854 0.7429 0.3572
N4 N 0.5068(4) 1.3887(4) 0.5427(3)
C3 C 0.4972(7) 1.2283(2) 0.4969(6)
C4 C 0.5093(6) 1.2939(4) 0.5716(5)
H3 H 0.5177 1.2740 0.6320
C5 C 0.4949(7) 0.7911(3) 0.4914(5)
C6 C 0.5165(7) 0.9573(5) 0.5767(5)
H4 H 0.5364 0.9236 0.6294
C7 C 0.4951(6) 0.9027(2) 0.4962(5)
C8 C 0.4787(7) 0.9584(5) 0.4195(4)
C9 C 0.4683(6) 1.0623(5) 0.4210(4)
H5 H 0.4485 1.0969 0.3687
C10 C 0.4881(6) 1.1152(3) 0.5034(5)
C11 C 0.5075(6) 1.0619(5) 0.5768(5)
C12 C 0.5063(6) 0.7290(5) 0.5657(4)
H6 H 0.5164 0.7508 0.6254
F1 F 0.5351(5) 1.1058(2) 0.6554(3)
F2 F 0.4611(6) 0.9161(2) 0.3384(3)
Co1_2 Co 0.50752(6) 1.51205(4) 0.62164(14)
Co1B Co 0.48795(4) 0.50752(6) 0.37164(14)
Co1B_2 Co 0.48795(4) 1.50752(6) 0.37164(14)
N1C N 0.3911(4) 0.5150(5) 0.7037(3)
N2C N 0.6284(4) 0.5133(4) 0.6969(3)
N4_2 N 0.5068(4) 0.3887(4) 0.5427(3)
loop_
_geom_bond_atom_site_label_1
_geom_bond_atom_site_label_2
_geom_bond_site_symmetry_1
_geom_bond_site_symmetry_2
Co1 N3 1_555 1_555
N1 C1 1_555 1_555
N2 N3 1_555 1_555
N3 C12 1_555 1_555
C1 H1 1_555 1_555
C2 N2 1_555 1_555
H2 C2 1_555 1_555
N4 N1 1_555 1_555
C3 C1 1_555 1_555
C4 N4 1_555 1_555
H3 C4 1_555 1_555
C5 C2 1_555 1_555
C6 H4 1_555 1_555
C7 C5 1_555 1_555
C8 C7 1_555 1_555
C9 C8 1_555 1_555
H5 C9 1_555 1_555
C10 C3 1_555 1_555
C11 C6 1_555 1_555
C12 C5 1_555 1_555
H6 C12 1_555 1_555
F1 C11 1_555 1_555
F2 C8 1_555 1_555
Co1_2 N4 1_555 1_555
Co1B N2 1_555 1_555
Co1B_2 N1 1_555 1_555
N1C Co1 1_555 1_555
N2C Co1 1_555 1_555
N4_2 Co1 1_555 1_555
C3 C4 1_555 1_555
C6 C7 1_555 1_555
C9 C10 1_555 1_555
C10 C11 1_555 1_555

#END
