
#######################################################################
#
#                 Cambridge Crystallographic Data Centre
#                                CCDC 
#
#######################################################################
#
# If this CIF has been generated from an entry in the Cambridge 
# Structural Database, then it will include bibliographic, chemical, 
# crystal, experimental, refinement or atomic coordinate data resulting 
# from the CCDC's data processing and validation procedures.
#
#######################################################################

data_DUBJUH
_chemical_formula_moiety         '(C34 H30 Co2 N6 O13)n'
_symmetry_cell_setting           monoclinic
_symmetry_space_group_name_H-M   'C 2/m'
_symmetry_Int_Tables_number      12
_space_group_name_Hall           '-C 2y'
loop_
_symmetry_equiv_pos_site_id
_symmetry_equiv_pos_as_xyz
1 x,y,z
2 -x,y,-z
3 1/2+x,1/2+y,z
4 1/2-x,1/2+y,-z
5 -x,-y,-z
6 x,-y,z
7 1/2-x,1/2-y,-z
8 1/2+x,1/2-y,z
_cell_length_a                   19.860(2)
_cell_length_b                   22.140(2)
_cell_length_c                   11.6844(12)
_cell_angle_alpha                90
_cell_angle_beta                 116.318(2)
_cell_angle_gamma                90
_cell_volume                     4605.11
loop_
_atom_site_label
_atom_site_type_symbol
_atom_site_fract_x
_atom_site_fract_y
_atom_site_fract_z
Co1 Co 0.31289(3) 0.12295(2) 0.61349(5)
N1 N -0.09367(18) 0.31967(16) 0.6870(3)
N2 N 0.1407(2) 0.20892(17) 0.9705(3)
N3 N 0.28160(18) 0.14144(16) 1.4228(3)
O1 O 0.31314(17) 0.12376(14) 0.8024(3)
O2 O 0.23248(17) 0.17575(14) 0.6404(3)
O3 O 0.23641(15) 0.05012(13) 0.5629(3)
O4 O 0.38474(15) 0.05017(13) 0.6393(3)
C1 C -0.0815(2) 0.2741(2) 0.6235(4)
H1 H -0.1193 0.2642 0.5434
C2 C -0.0162(3) 0.2411(2) 0.6699(4)
H2 H -0.0099 0.2107 0.6206
C3 C 0.0400(2) 0.2534(2) 0.7900(4)
C4 C 0.0273(3) 0.2997(2) 0.8596(4)
H3 H 0.0633 0.3091 0.9416
C5 C -0.0395(3) 0.3311(2) 0.8045(4)
H4 H -0.0473 0.3619 0.8514
C6 C 0.1118(2) 0.2201(2) 0.8453(4)
C7 C 0.1472(2) 0.2036(2) 0.7710(4)
H5 H 0.1256 0.2123 0.6841
C8 C 0.2155(2) 0.17393(19) 0.8292(4)
C9 C 0.2448(2) 0.16011(19) 0.9574(4)
H6 H 0.2897 0.1389 0.9975
C10 C 0.2060(2) 0.1785(2) 1.0256(4)
C11 C 0.3254(3) 0.1304(2) 1.3650(4)
H7 H 0.3731 0.1145 1.4134
C12 C 0.3034(3) 0.1413(3) 1.2378(4)
H8 H 0.3357 0.1327 1.2019
C13 C 0.2331(2) 0.16513(19) 1.1630(4)
C14 C 0.1887(3) 0.1770(3) 1.2233(4)
H9 H 0.1410 0.1934 1.1776
C15 C 0.2148(3) 0.1646(2) 1.3509(4)
H10 H 0.1835 0.1730 1.3890
C16 C 0.2565(2) 0.15689(19) 0.7528(4)
C17 C 0.2671(3) -0.0000 0.5786(5)
C18 C 0.3532(3) 0.0000 0.6227(5)
O3E O 0.23641(15) -0.05012(13) 0.5629(3)
O4E O 0.38474(15) -0.05017(13) 0.6393(3)
Co1E Co 0.31289(3) -0.12295(2) 0.61349(5)
N1E N -0.09367(18) -0.31967(16) 0.6870(3)
N2E N 0.1407(2) -0.20892(17) 0.9705(3)
N3E N 0.28160(18) -0.14144(16) 1.4228(3)
O1E O 0.31314(17) -0.12376(14) 0.8024(3)
O2E O 0.23248(17) -0.17575(14) 0.6404(3)
C1E C -0.0815(2) -0.2741(2) 0.6235(4)
H1E H -0.1193 -0.2642 0.5434
C2E C -0.0162(3) -0.2411(2) 0.6699(4)
H2E H -0.0099 -0.2107 0.6206
C3E C 0.0400(2) -0.2534(2) 0.7900(4)
C4E C 0.0273(3) -0.2997(2) 0.8596(4)
H3E H 0.0633 -0.3091 0.9416
C5E C -0.0395(3) -0.3311(2) 0.8045(4)
H4E H -0.0473 -0.3619 0.8514
C6E C 0.1118(2) -0.2201(2) 0.8453(4)
C7E C 0.1472(2) -0.2036(2) 0.7710(4)
H5E H 0.1256 -0.2123 0.6841
C8E C 0.2155(2) -0.17393(19) 0.8292(4)
C9E C 0.2448(2) -0.16011(19) 0.9574(4)
H6E H 0.2897 -0.1389 0.9975
C10E C 0.2060(2) -0.1785(2) 1.0256(4)
C11E C 0.3254(3) -0.1304(2) 1.3650(4)
H7E H 0.3731 -0.1145 1.4134
C12E C 0.3034(3) -0.1413(3) 1.2378(4)
H8E H 0.3357 -0.1327 1.2019
C13E C 0.2331(2) -0.16513(19) 1.1630(4)
C14E C 0.1887(3) -0.1770(3) 1.2233(4)
H9E H 0.1410 -0.1934 1.1776
C15E C 0.2148(3) -0.1646(2) 1.3509(4)
H10E H 0.1835 -0.1730 1.3890
C16E C 0.2565(2) -0.15689(19) 0.7528(4)
Co1_2 Co 0.31289(3) 0.12295(2) 1.61349(5)
Co1B Co -0.18711(3) -0.37705(2) 0.61349(5)
Co1E_2 Co 0.31289(3) -0.12295(2) 1.61349(5)
Co1G Co -0.18711(3) 0.37705(2) 0.61349(5)
N1B N 0.40633(18) -0.18033(16) 0.6870(3)
N1G N 0.40633(18) 0.18033(16) 0.6870(3)
N3_2 N 0.28160(18) 0.14144(16) 0.4228(3)
N3E_2 N 0.28160(18) -0.14144(16) 0.4228(3)
O5 O 0.4766(9) 0.0574(8) 0.3745(16)
O6 O 0.3395(16) 0.0000 0.901(3)
O7 O 0.947(2) 0.1093(17) 0.500(4)
O8 O 0.209(2) 0.0000 0.085(4)
O9 O 0.354(2) -0.0000 0.150(4)
loop_
_geom_bond_atom_site_label_1
_geom_bond_atom_site_label_2
_geom_bond_site_symmetry_1
_geom_bond_site_symmetry_2
Co1 O1 1_555 1_555
N1 C1 1_555 1_555
N2 C6 1_555 1_555
N3 C11 1_555 1_555
O1 C16 1_555 1_555
O2 Co1 1_555 1_555
O3 Co1 1_555 1_555
O4 Co1 1_555 1_555
C1 H1 1_555 1_555
C2 C1 1_555 1_555
H2 C2 1_555 1_555
C3 C2 1_555 1_555
C4 C3 1_555 1_555
H3 C4 1_555 1_555
C5 N1 1_555 1_555
H4 C5 1_555 1_555
C6 C3 1_555 1_555
C7 C6 1_555 1_555
H5 C7 1_555 1_555
C8 C7 1_555 1_555
C9 C8 1_555 1_555
H6 C9 1_555 1_555
C10 N2 1_555 1_555
C11 H7 1_555 1_555
C12 C11 1_555 1_555
H8 C12 1_555 1_555
C13 C10 1_555 1_555
C14 C13 1_555 1_555
H9 C14 1_555 1_555
C15 N3 1_555 1_555
H10 C15 1_555 1_555
C16 O2 1_555 1_555
C17 O3 1_555 1_555
C18 O4 1_555 1_555
O3E C17 1_555 1_555
O4E C18 1_555 1_555
Co1E O3E 1_555 1_555
N1E C1E 1_555 1_555
N2E C6E 1_555 1_555
N3E C11E 1_555 1_555
O1E Co1E 1_555 1_555
O2E Co1E 1_555 1_555
C1E H1E 1_555 1_555
C2E C1E 1_555 1_555
H2E C2E 1_555 1_555
C3E C2E 1_555 1_555
C4E C3E 1_555 1_555
H3E C4E 1_555 1_555
C5E N1E 1_555 1_555
H4E C5E 1_555 1_555
C6E C3E 1_555 1_555
C7E C6E 1_555 1_555
H5E C7E 1_555 1_555
C8E C7E 1_555 1_555
C9E C8E 1_555 1_555
H6E C9E 1_555 1_555
C10E N2E 1_555 1_555
C11E H7E 1_555 1_555
C12E C11E 1_555 1_555
H8E C12E 1_555 1_555
C13E C10E 1_555 1_555
C14E C13E 1_555 1_555
H9E C14E 1_555 1_555
C15E N3E 1_555 1_555
H10E C15E 1_555 1_555
C16E O1E 1_555 1_555
Co1_2 N3 1_555 1_555
Co1B N1E 1_555 1_555
Co1E_2 N3E 1_555 1_555
Co1G N1 1_555 1_555
N1B Co1E 1_555 1_555
N1G Co1 1_555 1_555
N3_2 Co1 1_555 1_555
N3E_2 Co1E 1_555 1_555
C4 C5 1_555 1_555
C8 C16 1_555 1_555
C9 C10 1_555 1_555
C12 C13 1_555 1_555
C14 C15 1_555 1_555
C17 C18 1_555 1_555
O4E Co1E 1_555 1_555
O2E C16E 1_555 1_555
C4E C5E 1_555 1_555
C8E C16E 1_555 1_555
C9E C10E 1_555 1_555
C12E C13E 1_555 1_555
C14E C15E 1_555 1_555

#END
