
#######################################################################
#
#                 Cambridge Crystallographic Data Centre
#                                CCDC 
#
#######################################################################
#
# If this CIF has been generated from an entry in the Cambridge 
# Structural Database, then it will include bibliographic, chemical, 
# crystal, experimental, refinement or atomic coordinate data resulting 
# from the CCDC's data processing and validation procedures.
#
#######################################################################

data_ZARTAP03
_chemical_formula_moiety         '(C24 H18 Fe2 N24)n'
_symmetry_cell_setting           rhombohedral
_symmetry_space_group_name_H-M   'R -3'
_symmetry_Int_Tables_number      148
_space_group_name_Hall           '-R 3'
loop_
_symmetry_equiv_pos_site_id
_symmetry_equiv_pos_as_xyz
1 x,y,z
2 -y,x-y,z
3 -x+y,-x,z
4 2/3+x,1/3+y,1/3+z
5 2/3-y,1/3+x-y,1/3+z
6 2/3-x+y,1/3-x,1/3+z
7 1/3+x,2/3+y,2/3+z
8 1/3-y,2/3+x-y,2/3+z
9 1/3-x+y,2/3-x,2/3+z
10 -x,-y,-z
11 y,-x+y,-z
12 x-y,x,-z
13 1/3-x,2/3-y,2/3-z
14 1/3+y,2/3-x+y,2/3-z
15 1/3+x-y,2/3+x,2/3-z
16 2/3-x,1/3-y,1/3-z
17 2/3+y,1/3-x+y,1/3-z
18 2/3+x-y,1/3+x,1/3-z
_cell_length_a                   22.4652(8)
_cell_length_b                   22.4652(8)
_cell_length_c                   7.3495(3)
_cell_angle_alpha                90
_cell_angle_beta                 90
_cell_angle_gamma                120
_cell_volume                     3212.25
loop_
_atom_site_label
_atom_site_type_symbol
_atom_site_fract_x
_atom_site_fract_y
_atom_site_fract_z
Fe1 Fe 0.0000 0.0000 0.0000
Fe2 Fe 0.0000 0.0000 0.5000
N1 N 0.07260(11) 0.14533(10) 0.4234(3)
N2 N 0.04137(10) 0.08258(10) 0.3496(3)
N3 N 0.04327(11) 0.08655(11) 0.1706(3)
N4 N 0.07638(13) 0.15293(11) 0.1231(3)
H1 H 0.0850 0.1704 0.0097
C1 C 0.09381(15) 0.18757(14) 0.2789(4)
C2 C 0.13154(18) 0.26284(14) 0.3040(4)
C3 C 0.1120(4) 0.2908(3) 0.4412(10)
H2 H 0.0731 0.2611 0.5155
C4 C 0.1859(4) 0.3048(3) 0.1922(10)
H3 H 0.1987 0.2856 0.0932
Fe1F Fe 0.3333 0.6667 0.6667
Fe1C Fe 0.6667 0.3333 -0.6667
Fe1C_2 Fe -0.3333 0.3333 -0.6667
Fe2F Fe 0.3333 0.6667 0.1667
Fe2_2 Fe -0.0000 0.0000 -0.5000
Fe2C Fe 0.6667 0.3333 -0.1667
Fe2C_2 Fe -0.3333 0.3333 -0.1667
N1L N 0.26073(11) 0.52134(10) 0.2433(3)
N1J N 0.14533(10) 0.07273(15) -0.4234(3)
N1D N 0.52134(10) 0.26060(15) -0.2433(3)
N1K N -0.07273(15) 0.07260(11) -0.4234(3)
N1E N -0.26060(15) 0.26073(11) -0.2433(3)
N2L N 0.29196(10) 0.58409(10) 0.3171(3)
N2J N 0.08258(10) 0.04121(14) -0.3496(3)
N2D N 0.58409(10) 0.29212(14) -0.3171(3)
N2K N -0.04121(14) 0.04137(10) -0.3496(3)
N2E N -0.29212(14) 0.29196(10) -0.3171(3)
N2J_2 N 0.08258(10) 0.04121(14) 0.6504(3)
N2K_2 N -0.04121(14) 0.04137(10) 0.6504(3)
N2I N -0.04137(10) -0.08258(10) 0.6504(3)
N2A N -0.08258(10) -0.04121(14) 0.3496(3)
N2B N 0.04121(14) -0.04137(10) 0.3496(3)
N3L N 0.29006(11) 0.58012(11) 0.4961(3)
N3J N 0.08655(11) 0.04328(16) -0.1706(3)
N3D N 0.58012(11) 0.29005(16) -0.4961(3)
N3K N -0.04328(16) 0.04327(11) -0.1706(3)
N3E N -0.29005(16) 0.29006(11) -0.4961(3)
N3I N -0.04327(11) -0.08655(11) -0.1706(3)
N3A N -0.08655(11) -0.04328(16) 0.1706(3)
N3B N 0.04328(16) -0.04327(11) 0.1706(3)
N4L N 0.25695(13) 0.51374(11) 0.5436(3)
N4J N 0.15293(11) 0.07655(17) -0.1231(3)
N4D N 0.51374(11) 0.25678(17) -0.5436(3)
N4K N -0.07655(17) 0.07638(13) -0.1231(3)
N4E N -0.25678(17) 0.25695(13) -0.5436(3)
H1L H 0.2483 0.4963 0.6570
H1J H 0.1704 0.0854 -0.0097
H1D H 0.4963 0.2479 -0.6570
H1K H -0.0854 0.0850 -0.0097
H1E H -0.2479 0.2483 -0.6570
C1L C 0.23952(15) 0.47910(14) 0.3878(4)
C1J C 0.18757(14) 0.09376(21) -0.2789(4)
C1D C 0.47910(14) 0.23957(21) -0.3878(4)
C1K C -0.09376(21) 0.09381(15) -0.2789(4)
C1E C -0.23957(21) 0.23952(15) -0.3878(4)
C2L C 0.20179(18) 0.40383(14) 0.3627(4)
C2J C 0.26284(14) 0.13130(23) -0.3040(4)
C2D C 0.40383(14) 0.20203(23) -0.3627(4)
C2K C -0.13130(23) 0.13154(18) -0.3040(4)
C2E C -0.20203(23) 0.20179(18) -0.3627(4)
C3L C 0.2213(4) 0.3759(3) 0.2255(10)
C3J C 0.2908(3) 0.1788(5) -0.4412(10)
C3D C 0.3759(3) 0.1545(5) -0.2255(10)
C3K C -0.1788(5) 0.1120(4) -0.4412(10)
C3E C -0.1545(5) 0.2213(4) -0.2255(10)
H2L H 0.2602 0.4056 0.1512
H2J H 0.2611 0.1880 -0.5155
H2D H 0.4056 0.1453 -0.1512
H2K H -0.1880 0.0731 -0.5155
H2E H -0.1453 0.2602 -0.1512
C4L C 0.1474(4) 0.3619(3) 0.4745(10)
C4J C 0.3048(3) 0.1189(5) -0.1922(10)
C4D C 0.3619(3) 0.2144(5) -0.4745(10)
C4K C -0.1189(5) 0.1859(4) -0.1922(10)
C4E C -0.2144(5) 0.1474(4) -0.4745(10)
H3L H 0.1346 0.3811 0.5735
H3J H 0.2856 0.0869 -0.0932
H3D H 0.3811 0.2464 -0.5735
H3K H -0.0869 0.1987 -0.0932
H3E H -0.2464 0.1346 -0.5735
loop_
_geom_bond_atom_site_label_1
_geom_bond_atom_site_label_2
_geom_bond_site_symmetry_1
_geom_bond_site_symmetry_2
Fe1 N3 1_555 1_555
Fe2 N2 1_555 1_555
N1 N2 1_555 1_555
N2 N3 1_555 1_555
N3 N4 1_555 1_555
N4 H1 1_555 1_555
C1 N1 1_555 1_555
C2 C1 1_555 1_555
C3 C2 1_555 1_555
H2 C3 1_555 1_555
C4 C2 1_555 1_555
H3 C4 1_555 1_555
Fe1F N3L 1_555 1_555
Fe1C N3D 1_555 1_555
Fe1C_2 N3E 1_555 1_555
Fe2F N2L 1_555 1_555
Fe2_2 N2J 1_555 1_555
Fe2C N2D 1_555 1_555
Fe2C_2 N2E 1_555 1_555
N1L N2L 1_555 1_555
N1J N2J 1_555 1_555
N1D N2D 1_555 1_555
N1K N2K 1_555 1_555
N1E N2E 1_555 1_555
N2L N3L 1_555 1_555
N2J N3J 1_555 1_555
N2D N3D 1_555 1_555
N2K Fe2_2 1_555 1_555
N2E N3E 1_555 1_555
N2J_2 Fe2 1_555 1_555
N2K_2 Fe2 1_555 1_555
N2I Fe2 1_555 1_555
N2A Fe2 1_555 1_555
N2B Fe2 1_555 1_555
N3L N4L 1_555 1_555
N3J Fe1 1_555 1_555
N3D N4D 1_555 1_555
N3K Fe1 1_555 1_555
N3E N4E 1_555 1_555
N3I Fe1 1_555 1_555
N3A Fe1 1_555 1_555
N3B Fe1 1_555 1_555
N4L H1L 1_555 1_555
N4J N3J 1_555 1_555
N4D H1D 1_555 1_555
N4K N3K 1_555 1_555
N4E H1E 1_555 1_555
H1J N4J 1_555 1_555
H1K N4K 1_555 1_555
C1L N1L 1_555 1_555
C1J N1J 1_555 1_555
C1D N1D 1_555 1_555
C1K N1K 1_555 1_555
C1E N1E 1_555 1_555
C2L C1L 1_555 1_555
C2J C1J 1_555 1_555
C2D C1D 1_555 1_555
C2K C1K 1_555 1_555
C2E C1E 1_555 1_555
C3L C4 1_555 1_555
C3J C2J 1_555 1_555
C3D C2D 1_555 1_555
C3K C2K 1_555 1_555
C3E C2E 1_555 1_555
H2L C3L 1_555 1_555
H2J C3J 1_555 1_555
H2D C3D 1_555 1_555
H2K C3K 1_555 1_555
H2E C3E 1_555 1_555
C4L C3 1_555 1_555
C4J C2J 1_555 1_555
C4D C2D 1_555 1_555
C4K C2K 1_555 1_555
C4E C2E 1_555 1_555
H3L C4L 1_555 1_555
H3J C4J 1_555 1_555
H3D C4D 1_555 1_555
H3K C4K 1_555 1_555
H3E C4E 1_555 1_555
N4 C1 1_555 1_555
N2K N3K 1_555 1_555
N2A N3A 1_555 1_555
N2B N3B 1_555 1_555
N4L C1L 1_555 1_555
N4J C1J 1_555 1_555
N4D C1D 1_555 1_555
N4K C1K 1_555 1_555
N4E C1E 1_555 1_555
C2L C3L 1_555 1_555
C2L C4L 1_555 1_555
C3J C4D 1_555 1_555
C3D C4J 1_555 1_555
C3K C4E 1_555 1_555
C3E C4K 1_555 1_555

#END
