
#######################################################################
#
#                 Cambridge Crystallographic Data Centre
#                                CCDC 
#
#######################################################################
#
# If this CIF has been generated from an entry in the Cambridge 
# Structural Database, then it will include bibliographic, chemical, 
# crystal, experimental, refinement or atomic coordinate data resulting 
# from the CCDC's data processing and validation procedures.
#
#######################################################################

data_CESYEF01
_chemical_formula_moiety         '(C6 H6 Ag1 N1 O3)n'
_symmetry_cell_setting           monoclinic
_symmetry_space_group_name_H-M   'P 21/c'
_symmetry_Int_Tables_number      14
_space_group_name_Hall           '-P 2ybc'
loop_
_symmetry_equiv_pos_site_id
_symmetry_equiv_pos_as_xyz
1 x,y,z
2 -x,1/2+y,1/2-z
3 -x,-y,-z
4 x,1/2-y,1/2+z
_cell_length_a                   3.6519(5)
_cell_length_b                   12.1512(18)
_cell_length_c                   15.070(2)
_cell_angle_alpha                90
_cell_angle_beta                 90.982(4)
_cell_angle_gamma                90
_cell_volume                     668.633
loop_
_atom_site_label
_atom_site_type_symbol
_atom_site_fract_x
_atom_site_fract_y
_atom_site_fract_z
Ag1 Ag 0.6044(3) 0.57393(8) 0.07548(6)
O1 O 1.116(2) 0.4462(9) 0.1015(8)
O2 O 1.169(2) 0.2889(9) 0.0226(6)
N1 N 0.617(2) 0.1693(8) 0.3069(5)
C1 C 1.069(3) 0.3409(13) 0.0886(10)
C2 C 0.905(2) 0.2824(8) 0.1646(7)
C3 C 0.861(3) 0.3317(9) 0.2468(8)
H1 H 0.9298 0.4064 0.2555
C4 C 0.720(3) 0.2724(10) 0.3148(7)
H2 H 0.6950 0.3073 0.3708
C5 C 0.660(2) 0.1205(8) 0.2281(6)
H3 H 0.5898 0.0456 0.2218
C6 C 0.801(2) 0.1735(8) 0.1564(6)
H4 H 0.8269 0.1360 0.1016
Ag1B Ag 0.3956(3) 0.42607(8) -0.07548(6)
Ag1_2 Ag 1.6044(3) 0.57393(8) 0.07548(6)
Ag1B_2 Ag 1.3956(3) 0.42607(8) -0.07548(6)
Ag1A Ag 0.3956(3) 0.07393(8) 0.42452(6)
O1_2 O 0.116(2) 0.4462(9) 0.1015(8)
O2B O 0.831(2) 0.7111(9) -0.0226(6)
N1A N 0.383(2) 0.6693(8) 0.1931(5)
O3 O 0.245(4) 0.4351(9) 0.4685(7)
H5 H 0.1045 0.4762 0.4984
H6 H 0.4344 0.4638 0.4462
loop_
_geom_bond_atom_site_label_1
_geom_bond_atom_site_label_2
_geom_bond_site_symmetry_1
_geom_bond_site_symmetry_2
Ag1 O1 1_555 1_555
O1 C1 1_555 1_555
O2 C1 1_555 1_555
N1 C4 1_555 1_555
C1 C2 1_555 1_555
C2 C3 1_555 1_555
C3 H1 1_555 1_555
C4 C3 1_555 1_555
H2 C4 1_555 1_555
C5 N1 1_555 1_555
H3 C5 1_555 1_555
C6 C2 1_555 1_555
H4 C6 1_555 1_555
O3 H5 1_555 1_555
H6 O3 1_555 1_555
Ag1B Ag1 1_555 1_555
Ag1_2 O1 1_555 1_555
Ag1B_2 O2 1_555 1_555
Ag1A N1 1_555 1_555
O1_2 Ag1 1_555 1_555
O2B Ag1 1_555 1_555
N1A Ag1 1_555 1_555
C5 C6 1_555 1_555
Ag1_2 Ag1B_2 1_555 1_555

#END
