
#######################################################################
#
#                 Cambridge Crystallographic Data Centre
#                                CCDC 
#
#######################################################################
#
# If this CIF has been generated from an entry in the Cambridge 
# Structural Database, then it will include bibliographic, chemical, 
# crystal, experimental, refinement or atomic coordinate data resulting 
# from the CCDC's data processing and validation procedures.
#
#######################################################################

data_KESHAT
_chemical_formula_moiety         '(C16 H22 N4 O17 Pr2)n'
_symmetry_cell_setting           monoclinic
_symmetry_space_group_name_H-M   'P 21/n'
_symmetry_Int_Tables_number      14
_space_group_name_Hall           '-P 2yn'
loop_
_symmetry_equiv_pos_site_id
_symmetry_equiv_pos_as_xyz
1 x,y,z
2 1/2-x,1/2+y,1/2-z
3 -x,-y,-z
4 1/2+x,1/2-y,1/2+z
_cell_length_a                   10.3779(5)
_cell_length_b                   11.3829(6)
_cell_length_c                   22.3878(11)
_cell_angle_alpha                90
_cell_angle_beta                 97.3990(10)
_cell_angle_gamma                90
_cell_volume                     2622.66
loop_
_atom_site_label
_atom_site_type_symbol
_atom_site_fract_x
_atom_site_fract_y
_atom_site_fract_z
C1 C -0.0831(4) 0.8204(3) 0.81930(19)
C2 C -0.1527(4) 0.8600(3) 0.76132(18)
C3 C -0.2576(4) 0.9346(3) 0.74707(19)
C4 C -0.3392(4) 1.0113(3) 0.78169(18)
C5 C -0.1881(4) 0.8686(4) 0.6638(2)
C6 C -0.1804(6) 0.8531(5) 0.5986(2)
H1 H -0.2043 0.7741 0.5870
H2 H -0.0933 0.8682 0.5906
H3 H -0.2388 0.9071 0.5760
C7 C -0.3048(4) 0.8483(3) 1.08718(17)
C8 C -0.1728(4) 0.8513(3) 1.12276(18)
C9 C -0.0519(4) 0.8694(4) 1.10557(18)
C10 C 0.0045(4) 0.8828(3) 1.04847(19)
C11 C -0.0373(4) 0.8465(4) 1.20458(19)
C12 C 0.0244(5) 0.8384(5) 1.2681(2)
H4 H 0.1158 0.8241 1.2690
H5 H 0.0116 0.9109 1.2885
H6 H -0.0143 0.7752 1.2879
C13 C 0.2356(4) 0.9591(3) 0.71452(18)
C14 C 0.2962(4) 0.9130(3) 0.77723(18)
N1 N -0.1102(3) 0.8204(3) 0.70868(15)
N2 N -0.2768(3) 0.9374(3) 0.68545(16)
H7 H -0.3362 0.9770 0.6639
N3 N -0.1623(3) 0.8371(3) 1.18433(15)
N4 N 0.0308(3) 0.8665(3) 1.15850(16)
H8 H 0.1136 0.8760 1.1617
O1 O 0.0212(3) 0.7651(3) 0.81752(13)
O2 O -0.1281(4) 0.8399(4) 0.86732(15)
O3 O -0.3144(3) 1.0199(3) 0.83783(13)
O4 O -0.4262(3) 1.0658(3) 0.74963(14)
O5 O -0.3992(3) 0.8204(2) 1.11493(12)
O6 O -0.3195(3) 0.8758(3) 1.03292(13)
O7 O -0.0628(3) 0.8662(3) 0.99917(13)
O8 O 0.1241(3) 0.9081(3) 1.05444(14)
O9 O 0.1581(3) 0.8918(2) 0.68414(14)
O10 O 0.2680(3) 1.0596(2) 0.69920(13)
O11 O 0.2690(3) 0.8104(2) 0.79031(13)
O12 O 0.3686(3) 0.9821(2) 0.80925(13)
O13 O -0.3934(3) 1.0865(3) 0.96728(16)
O14 O -0.4909(3) 0.8626(3) 0.90202(18)
O15 O -0.2774(4) 0.6985(3) 0.9385(2)
Pr1 Pr -0.26224(2) 0.918760(19) 0.935310(10)
Pr2 Pr 0.108506(19) 0.691503(16) 0.725330(9)
H9 H -0.460(2) 1.114(3) 0.9455(10)
H10 H -0.403(3) 1.101(3) 1.0037(6)
H11 H -0.528(2) 0.7984(19) 0.9095(16)
H12 H -0.543(2) 0.898(2) 0.8752(14)
H13 H -0.337(3) 0.6622(19) 0.9528(19)
H14 H -0.220(3) 0.6537(17) 0.9276(19)
N3C N 0.3377(3) 0.6629(3) 0.68433(15)
O4A O -0.0738(3) 0.5658(3) 0.75037(14)
O5C O 0.1008(3) 0.6796(2) 0.61493(12)
O8B O -0.1241(3) 1.0919(3) 0.94556(14)
O10A O 0.2320(3) 0.5596(2) 0.80080(13)
O12A O 0.1314(3) 0.4821(2) 0.69075(13)
Pr1B Pr 0.26224(2) 1.081240(19) 1.064690(10)
Pr2C Pr -0.391494(19) 0.808497(16) 1.225330(9)
Pr2A Pr -0.608506(19) 1.191503(16) 0.774670(9)
Pr2A_2 Pr 0.391494(19) 1.191503(16) 0.774670(9)
C15 C 0.432(2) -0.096(2) 0.5636(11)
C16 C 0.453(2) 0.030(2) 0.5666(11)
O16 O 0.5611(5) 0.0771(4) 0.6018(2)
H15 H 0.5403 0.1381 0.6175
O17 O 0.1308(5) 0.1536(5) 0.5868(2)
H16 H 0.184(3) 0.172(4) 0.5625(13)
H17 H 0.170(3) 0.129(4) 0.6197(10)
loop_
_geom_bond_atom_site_label_1
_geom_bond_atom_site_label_2
_geom_bond_site_symmetry_1
_geom_bond_site_symmetry_2
C1 C2 1_555 1_555
C2 C3 1_555 1_555
C3 C4 1_555 1_555
C4 O3 1_555 1_555
C5 C6 1_555 1_555
C6 H1 1_555 1_555
H2 C6 1_555 1_555
H3 C6 1_555 1_555
C7 C8 1_555 1_555
C8 C9 1_555 1_555
C9 C10 1_555 1_555
C10 O7 1_555 1_555
C11 C12 1_555 1_555
C12 H4 1_555 1_555
H5 C12 1_555 1_555
H6 C12 1_555 1_555
C13 C14 1_555 1_555
C14 O11 1_555 1_555
N1 C2 1_555 1_555
N2 C3 1_555 1_555
H7 N2 1_555 1_555
N3 C8 1_555 1_555
N4 C9 1_555 1_555
H8 N4 1_555 1_555
O1 C1 1_555 1_555
O2 C1 1_555 1_555
O3 Pr1 1_555 1_555
O4 C4 1_555 1_555
O5 C7 1_555 1_555
O6 C7 1_555 1_555
O7 Pr1 1_555 1_555
O8 C10 1_555 1_555
O9 C13 1_555 1_555
O10 C13 1_555 1_555
O11 Pr2 1_555 1_555
O12 C14 1_555 1_555
O13 Pr1 1_555 1_555
O14 Pr1 1_555 1_555
O15 Pr1 1_555 1_555
Pr1 O2 1_555 1_555
Pr2 N1 1_555 1_555
H9 O13 1_555 1_555
H10 O13 1_555 1_555
H11 O14 1_555 1_555
H12 O14 1_555 1_555
H13 O15 1_555 1_555
H14 O15 1_555 1_555
C15 C16 1_555 1_555
C16 O16 1_555 1_555
O16 H15 1_555 1_555
O17 H16 1_555 1_555
H17 O17 1_555 1_555
N3C Pr2 1_555 1_555
O4A Pr2 1_555 1_555
O5C Pr2 1_555 1_555
O8B Pr1 1_555 1_555
O10A Pr2 1_555 1_555
O12A Pr2 1_555 1_555
Pr1B O8 1_555 1_555
Pr2C N3 1_555 1_555
Pr2A O4 1_555 1_555
Pr2A_2 O10 1_555 1_555
C5 N1 1_555 1_555
C5 N2 1_555 1_555
C11 N3 1_555 1_555
C11 N4 1_555 1_555
O1 Pr2 1_555 1_555
O5 Pr2C 1_555 1_555
O6 Pr1 1_555 1_555
O9 Pr2 1_555 1_555
O12 Pr2A_2 1_555 1_555

#END
