
#######################################################################
#
#                 Cambridge Crystallographic Data Centre
#                                CCDC 
#
#######################################################################
#
# If this CIF has been generated from an entry in the Cambridge 
# Structural Database, then it will include bibliographic, chemical, 
# crystal, experimental, refinement or atomic coordinate data resulting 
# from the CCDC's data processing and validation procedures.
#
#######################################################################

data_CAGLIF
_chemical_formula_moiety         '(C8 H10 Fe1 N4)n'
_symmetry_cell_setting           hexagonal
_symmetry_space_group_name_H-M   'P 64 2 2'
_symmetry_Int_Tables_number      181
_space_group_name_Hall           'P 64 2 (0 0 2)'
loop_
_symmetry_equiv_pos_site_id
_symmetry_equiv_pos_as_xyz
1 x,y,z
2 -y,x-y,1/3+z
3 -x+y,-x,2/3+z
4 y,x,1/3-z
5 x-y,-y,-z
6 -x,-x+y,2/3-z
7 -x,-y,z
8 y,-x+y,1/3+z
9 x-y,x,2/3+z
10 -y,-x,1/3-z
11 -x+y,y,-z
12 x,x-y,2/3-z
_cell_length_a                   8.617(2)
_cell_length_b                   8.617(2)
_cell_length_c                   12.907(4)
_cell_angle_alpha                90
_cell_angle_beta                 90
_cell_angle_gamma                120
_cell_volume                     829.981
loop_
_atom_site_label
_atom_site_type_symbol
_atom_site_fract_x
_atom_site_fract_y
_atom_site_fract_z
Fe1 Fe 0.00000 0.50000 0.33330
N1 N -0.12400 0.29200 0.23300
C1 C -0.25700 0.25700 0.16670
C2 C -0.07200 0.17300 0.20620
C3 C -0.36000 0.36000 0.16670
H1 H 0.03150 0.18200 0.23060
N1I N -0.29200 0.12400 0.10033
C2I C -0.17300 0.07200 0.12713
H1I H -0.18200 -0.03150 0.10273
N1E N 0.12400 0.41600 0.43367
C1E C 0.25700 0.51400 0.49997
C2E C 0.07200 0.24500 0.46047
C3E C 0.36000 0.72000 0.49997
H1E H -0.03150 0.15050 0.43607
N1G N 0.29200 0.41600 0.56633
C2G C 0.17300 0.24500 0.53953
H1G H 0.18200 0.15050 0.56393
Fe1A Fe 0.50000 0.50000 0.66663
Fe1B Fe -0.50000 0.00000 -0.00003
N1F N 0.12400 0.70800 0.23300
N1K N -0.12400 0.58400 0.43367
loop_
_geom_bond_atom_site_label_1
_geom_bond_atom_site_label_2
_geom_bond_site_symmetry_1
_geom_bond_site_symmetry_2
Fe1 N1 1_555 1_555
N1 C1 1_555 1_555
C1 C3 1_555 1_555
C2 N1 1_555 1_555
H1 C2 1_555 1_555
N1I C1 1_555 1_555
C2I C2 1_555 1_555
H1I C2I 1_555 1_555
N1E Fe1 1_555 1_555
C1E N1E 1_555 1_555
C2E N1E 1_555 1_555
C3E C1E 1_555 1_555
H1E C2E 1_555 1_555
N1G C1E 1_555 1_555
C2G C2E 1_555 1_555
H1G C2G 1_555 1_555
Fe1A N1G 1_555 1_555
Fe1B N1I 1_555 1_555
N1F Fe1 1_555 1_555
N1K Fe1 1_555 1_555
N1I C2I 1_555 1_555
N1G C2G 1_555 1_555

#END
