
#######################################################################
#
#                 Cambridge Crystallographic Data Centre
#                                CCDC 
#
#######################################################################
#
# If this CIF has been generated from an entry in the Cambridge 
# Structural Database, then it will include bibliographic, chemical, 
# crystal, experimental, refinement or atomic coordinate data resulting 
# from the CCDC's data processing and validation procedures.
#
#######################################################################

data_GEDDEA
_chemical_formula_moiety         '(C12 H23 Ni4 O19 S4)n'
_symmetry_cell_setting           rhombohedral
_symmetry_space_group_name_H-M   'R -3'
_symmetry_Int_Tables_number      148
_space_group_name_Hall           '-R 3'
loop_
_symmetry_equiv_pos_site_id
_symmetry_equiv_pos_as_xyz
1 x,y,z
2 -y,x-y,z
3 -x+y,-x,z
4 2/3+x,1/3+y,1/3+z
5 2/3-y,1/3+x-y,1/3+z
6 2/3-x+y,1/3-x,1/3+z
7 1/3+x,2/3+y,2/3+z
8 1/3-y,2/3+x-y,2/3+z
9 1/3-x+y,2/3-x,2/3+z
10 -x,-y,-z
11 y,-x+y,-z
12 x-y,x,-z
13 1/3-x,2/3-y,2/3-z
14 1/3+y,2/3-x+y,2/3-z
15 1/3+x-y,2/3+x,2/3-z
16 2/3-x,1/3-y,1/3-z
17 2/3+y,1/3-x+y,1/3-z
18 2/3+x-y,1/3+x,1/3-z
_cell_length_a                   26.907(2)
_cell_length_b                   26.907(2)
_cell_length_c                   28.712(4)
_cell_angle_alpha                90
_cell_angle_beta                 90
_cell_angle_gamma                120
_cell_volume                     18002.2
loop_
_atom_site_label
_atom_site_type_symbol
_atom_site_fract_x
_atom_site_fract_y
_atom_site_fract_z
Ni1 Ni 0.04888(7) 0.42780(7) 0.20472(6)
Ni2 Ni -0.03022(7) 0.24525(7) 0.45013(6)
Ni3 Ni 0.17342(7) 0.43923(7) 0.19680(6)
Ni4 Ni -0.02012(7) 0.49078(7) 0.19492(6)
O1 O -0.0753(3) 0.4105(3) 0.2217(3)
O2 O -0.0113(3) 0.3874(3) 0.2515(2)
O3 O -0.0586(3) 0.2832(3) 0.4065(2)
O4 O -0.1521(3) 0.2360(3) 0.4223(3)
C1 C -0.0589(5) 0.3859(5) 0.2540(4)
C2 C -0.1085(4) 0.2734(4) 0.3991(3)
C3 C -0.0988(4) 0.3590(4) 0.2903(3)
C4 C -0.0842(4) 0.3305(4) 0.3272(4)
H1 H -0.0497 0.3290 0.3251
C5 C -0.1206(4) 0.3058(4) 0.3653(4)
C6 C -0.1712(5) 0.3087(6) 0.3689(4)
H2 H -0.1972 0.2897 0.3938
C7 C -0.1841(5) 0.3406(5) 0.3345(4)
H3 H -0.2160 0.3463 0.3383
C8 C -0.1480(5) 0.3625(4) 0.2962(4)
H4 H -0.1578 0.3808 0.2726
O5 O 0.1194(3) 0.4581(3) 0.16367(18)
H5 H 0.1355 0.4978 0.1509
O6 O -0.0961(3) 0.2068(3) 0.4951(2)
H6 H -0.0898 0.2380 0.5174
O7 O 0.2175(3) 0.5150(3) 0.2303(2)
O8 O -0.0818(4) 0.4818(3) 0.1483(3)
S1 S 0.11067(10) 0.55799(11) 0.23756(9)
O9 O 0.0983(3) 0.6029(3) 0.2548(2)
O10 O 0.1382(3) 0.5734(3) 0.1898(3)
O11 O 0.0559(3) 0.5024(3) 0.2336(2)
O12 O 0.1490(3) 0.5511(3) 0.2698(3)
S2 S 0.03026(10) 0.46761(11) 0.10169(9)
O13 O 0.0078(3) 0.4507(3) 0.1500(3)
O14 O 0.0832(3) 0.5240(3) 0.1020(2)
O15 O -0.0149(3) 0.4707(3) 0.0734(2)
O16 O 0.0433(3) 0.4241(3) 0.0835(2)
S3 S -0.04432(13) 0.30582(13) 0.16628(13)
O17 O 0.0197(2) 0.3522(3) 0.16663(19)
C9 C -0.0688(5) 0.3136(6) 0.1096(6)
H7 H -0.0700 0.3495 0.1086
H8 H -0.1073 0.2811 0.1038
H9 H -0.0424 0.3146 0.0856
C10 C -0.0428(6) 0.2402(6) 0.1609(6)
H10 H -0.0284 0.2328 0.1899
H11 H -0.0176 0.2434 0.1350
H12 H -0.0817 0.2085 0.1548
S4 S 0.09149(14) 0.40106(14) 0.29884(12)
O18 O 0.1047(3) 0.4149(3) 0.2448(2)
C11 C 0.1571(11) 0.4216(11) 0.3218(12)
H13 H 0.1804 0.4636 0.3216
H14 H 0.1762 0.4055 0.3032
H15 H 0.1527 0.4076 0.3539
C12 C 0.0673(6) 0.3267(5) 0.3031(3)
H16 H 0.0276 0.3048 0.2920
H17 H 0.0691 0.3168 0.3356
H18 H 0.0917 0.3175 0.2840
Ni2G Ni 0.08808(7) 0.39120(10) 0.11680(6)
Ni2N Ni 0.05786(10) 0.63645(7) 0.21654(6)
Ni3E Ni -0.06752(10) 0.15991(7) 0.53013(6)
Ni3P Ni 0.10590(7) 0.59914(10) 0.13653(6)
Ni4M Ni -0.17589(7) 0.17757(10) 0.47175(6)
O4N O -0.0548(4) 0.5146(3) 0.2444(3)
O5E O 0.0054(4) 0.2139(3) 0.49700(18)
H5E H 0.0290 0.1978 0.4842
O6G O 0.1265(3) 0.3638(4) 0.1618(2)
O6N O 0.0304(4) 0.5706(3) 0.1716(2)
H6G H 0.0953 0.3389 0.1841
H6N H 0.0055 0.5769 0.1493
O9M O -0.0638(3) 0.1713(4) 0.4119(2)
O10Q O 0.2315(4) 0.4715(3) 0.1435(3)
O14Q O 0.2259(4) 0.4165(3) 0.2313(2)
O16E O 0.0475(4) 0.2900(3) 0.4168(2)
O17E O -0.0008(4) 0.3136(2) 0.49996(19)
loop_
_geom_bond_atom_site_label_1
_geom_bond_atom_site_label_2
_geom_bond_site_symmetry_1
_geom_bond_site_symmetry_2
Ni1 O2 1_555 1_555
Ni2 O3 1_555 1_555
Ni3 O5 1_555 1_555
Ni4 O1 1_555 1_555
O1 C1 1_555 1_555
O2 C1 1_555 1_555
O3 C2 1_555 1_555
O4 C2 1_555 1_555
C1 C3 1_555 1_555
C2 C5 1_555 1_555
C3 C4 1_555 1_555
C4 H1 1_555 1_555
C5 C4 1_555 1_555
C6 C5 1_555 1_555
H2 C6 1_555 1_555
C7 C6 1_555 1_555
H3 C7 1_555 1_555
C8 C3 1_555 1_555
H4 C8 1_555 1_555
O5 Ni1 1_555 1_555
H5 O5 1_555 1_555
O6 Ni2 1_555 1_555
H6 O6 1_555 1_555
O7 Ni3 1_555 1_555
O8 Ni4 1_555 1_555
S1 O9 1_555 1_555
O9 Ni2N 1_555 1_555
O10 S1 1_555 1_555
O11 Ni1 1_555 1_555
O12 S1 1_555 1_555
S2 O13 1_555 1_555
O13 Ni1 1_555 1_555
O14 S2 1_555 1_555
O15 S2 1_555 1_555
O16 S2 1_555 1_555
S3 O17 1_555 1_555
O17 Ni1 1_555 1_555
C9 S3 1_555 1_555
H7 C9 1_555 1_555
H8 C9 1_555 1_555
H9 C9 1_555 1_555
C10 S3 1_555 1_555
H10 C10 1_555 1_555
H11 C10 1_555 1_555
H12 C10 1_555 1_555
S4 O18 1_555 1_555
O18 Ni1 1_555 1_555
C11 S4 1_555 1_555
H13 C11 1_555 1_555
H14 C11 1_555 1_555
H15 C11 1_555 1_555
C12 S4 1_555 1_555
H16 C12 1_555 1_555
H17 C12 1_555 1_555
H18 C12 1_555 1_555
Ni2G O5 1_555 1_555
Ni2N O6N 1_555 1_555
Ni3E O6 1_555 1_555
Ni3P O10 1_555 1_555
Ni4M O4 1_555 1_555
O4N Ni4 1_555 1_555
O5E Ni2 1_555 1_555
H5E O5E 1_555 1_555
O6G Ni3 1_555 1_555
O6N Ni4 1_555 1_555
H6G O6G 1_555 1_555
H6N O6N 1_555 1_555
O9M Ni2 1_555 1_555
O10Q Ni3 1_555 1_555
O14Q Ni3 1_555 1_555
O16E Ni2 1_555 1_555
O17E Ni2 1_555 1_555
Ni3 O18 1_555 1_555
Ni4 O11 1_555 1_555
Ni4 O13 1_555 1_555
C7 C8 1_555 1_555
O6 Ni4M 1_555 1_555
S1 O11 1_555 1_555
O14 Ni3P 1_555 1_555
O16 Ni2G 1_555 1_555
O17 Ni2G 1_555 1_555
Ni2G O6G 1_555 1_555
Ni3E O5E 1_555 1_555
Ni3P O6N 1_555 1_555

#END
