
#######################################################################
#
#                 Cambridge Crystallographic Data Centre
#                                CCDC 
#
#######################################################################
#
# If this CIF has been generated from an entry in the Cambridge 
# Structural Database, then it will include bibliographic, chemical, 
# crystal, experimental, refinement or atomic coordinate data resulting 
# from the CCDC's data processing and validation procedures.
#
#######################################################################

data_GEDDAW
_chemical_formula_moiety         '(C20 H48 Co4 O23 S6)n'
_symmetry_cell_setting           rhombohedral
_symmetry_space_group_name_H-M   'R -3'
_symmetry_Int_Tables_number      148
_space_group_name_Hall           '-R 3'
loop_
_symmetry_equiv_pos_site_id
_symmetry_equiv_pos_as_xyz
1 x,y,z
2 -y,x-y,z
3 -x+y,-x,z
4 2/3+x,1/3+y,1/3+z
5 2/3-y,1/3+x-y,1/3+z
6 2/3-x+y,1/3-x,1/3+z
7 1/3+x,2/3+y,2/3+z
8 1/3-y,2/3+x-y,2/3+z
9 1/3-x+y,2/3-x,2/3+z
10 -x,-y,-z
11 y,-x+y,-z
12 x-y,x,-z
13 1/3-x,2/3-y,2/3-z
14 1/3+y,2/3-x+y,2/3-z
15 1/3+x-y,2/3+x,2/3-z
16 2/3-x,1/3-y,1/3-z
17 2/3+y,1/3-x+y,1/3-z
18 2/3+x-y,1/3+x,1/3-z
_cell_length_a                   27.402(4)
_cell_length_b                   27.402(4)
_cell_length_c                   28.865(6)
_cell_angle_alpha                90
_cell_angle_beta                 90
_cell_angle_gamma                120
_cell_volume                     18770.1
loop_
_atom_site_label
_atom_site_type_symbol
_atom_site_fract_x
_atom_site_fract_y
_atom_site_fract_z
Co1 Co 1.04483(5) 0.28349(5) 1.03696(4)
Co2 Co 0.94045(5) 0.36468(5) 1.28078(4)
Co3 Co 1.15817(5) 0.22626(5) 0.97020(4)
Co4 Co 1.17714(5) 0.35180(5) 1.02917(4)
O1 O 1.1510(3) 0.4043(3) 1.0560(2)
O2 O 1.0640(3) 0.3457(3) 1.0831(2)
O3 O 1.0045(3) 0.3915(3) 1.2342(2)
O4 O 1.0505(3) 0.4831(3) 1.2527(3)
C1 C 1.1112(4) 0.3909(4) 1.0850(3)
C2 C 1.0442(4) 0.4413(4) 1.2300(3)
C3 C 1.1208(4) 0.4295(4) 1.1250(3)
C4 C 1.1742(4) 0.4784(5) 1.1298(4)
H1 H 1.2032 0.4869 1.1078
C5 C 1.1833(4) 0.5136(5) 1.1669(4)
H2 H 1.2188 0.5469 1.1703
C6 C 1.1417(5) 0.5013(5) 1.1991(4)
H3 H 1.1489 0.5262 1.2244
C7 C 1.0894(4) 0.4528(4) 1.1949(3)
C8 C 1.0797(4) 0.4170(4) 1.1577(3)
H4 H 1.0443 0.3835 1.1548
S1 S 1.11110(10) 0.22182(10) 1.07215(8)
O5 O 1.1119(3) 0.2772(3) 1.0679(2)
O6 O 1.1666(3) 0.2341(3) 1.0901(2)
O7 O 1.0666(3) 0.1854(3) 1.1043(2)
O8 O 1.1002(3) 0.1950(3) 1.0257(2)
S2 S 1.10383(10) 0.30196(10) 0.93383(8)
O9 O 1.1077(2) 0.3226(3) 0.9831(2)
O10 O 1.1086(3) 0.2507(3) 0.9347(2)
O11 O 1.0485(3) 0.2874(3) 0.9154(2)
O12 O 1.1481(3) 0.3461(3) 0.9065(2)
O13 O 1.0046(2) 0.2149(2) 0.9971(2)
H5 H 1.0247 0.2017 0.9865
O14 O 0.9691(2) 0.4299(2) 1.3298(2)
H6 H 0.9898 0.4243 1.3485
S3 S 1.22514(19) 0.45896(18) 0.96596(15)
O15 O 1.2348(3) 0.4147(3) 0.9839(3)
C9 C 1.2719(10) 0.4851(8) 0.9165(7)
H7 H 1.2576 0.4567 0.8919
H8 H 1.3096 0.4931 0.9257
H9 H 1.2739 0.5197 0.9051
C10 C 1.2634(10) 0.5197(7) 1.0003(7)
H10 H 1.2448 0.5140 1.0305
H11 H 1.2648 0.5521 0.9847
H12 H 1.3018 0.5266 1.0049
S4 S 0.97476(14) 0.24168(14) 1.13232(10)
O16 O 0.9758(3) 0.2288(3) 1.0801(2)
C11 C 0.9227(5) 0.2613(5) 1.1362(4)
H13 H 0.9365 0.2981 1.1214
H14 H 0.9144 0.2637 1.1689
H15 H 0.8884 0.2331 1.1205
C12 C 0.9398(6) 0.1759(6) 1.1594(5)
H16 H 0.9644 0.1594 1.1600
H17 H 0.9053 0.1509 1.1422
H18 H 0.9300 0.1804 1.1912
S5 S 1.01488(13) 0.37580(12) 0.99760(11)
O17 O 0.9963(3) 0.3128(3) 0.9987(2)
C13 C 0.9533(6) 0.3786(6) 0.9857(5)
H19 H 0.9285 0.3656 1.0129
H20 H 0.9337 0.3543 0.9592
H21 H 0.9634 0.4175 0.9785
C14 C 1.0522(6) 0.4020(5) 0.9433(5)
H22 H 1.0881 0.4023 0.9447
H23 H 1.0594 0.4403 0.9379
H24 H 1.0292 0.3775 0.9179
O19 O 1.1155(3) 0.1505(3) 0.9373(2)
H25 H 1.1345 0.1465 0.9159
C17 C 1.0625(15) 0.1322(14) 0.9199(17)
H26 H 1.0456 0.0906 0.9198
H27 H 1.0435 0.1400 0.9456
C18 C 1.0357(19) 0.1429(10) 0.8758(10)
H28 H 0.9948 0.1171 0.8760
H29 H 1.0435 0.1819 0.8760
H30 H 1.0520 0.1364 0.8479
Co2Q Co 1.24244(7) 0.27378(5) 1.05255(4)
Co2G Co 0.96865(5) 0.24244(7) 0.94745(4)
Co3K Co 0.93191(7) 0.15817(5) 1.02980(4)
Co3P Co 0.89293(5) 0.40142(7) 1.36313(4)
Co4P Co 1.01847(5) 0.50799(7) 1.30416(4)
O4Q O 1.2341(4) 0.3838(3) 1.0806(3)
O6P O 0.9008(3) 0.4008(4) 1.2432(2)
O11E O 0.9056(4) 0.2848(3) 1.2487(2)
O13E O 0.8770(3) 0.3287(2) 1.3304(2)
O13J O 1.2149(2) 0.2103(3) 1.0029(2)
H5E H 0.8437 0.3086 1.3198
H5J H 1.2017 0.1770 1.0135
O14Q O 1.2059(3) 0.3024(2) 1.0035(2)
H6Q H 1.2322 0.3231 0.9848
O16J O 1.2288(3) 0.2530(4) 0.9199(2)
O17E O 0.9832(4) 0.3370(3) 1.3320(2)
O18 O 1.1420(9) 0.3221(10) 1.1810(6)
S6 S 1.1841(2) 0.3210(3) 1.22486(17)
C15 C 1.1922(9) 0.2648(10) 1.2038(6)
C16 C 1.1502(5) 0.3007(5) 1.2689(3)
O20 O 1.0911(16) 0.178(2) 1.3880(15)
C19 C 1.0793(11) 0.2123(13) 1.3603(10)
H31 H 1.1013 0.2525 1.3693
H32 H 1.0386 0.1999 1.3598
C20 C 1.1003(8) 0.1999(8) 1.3125(7)
H33 H 1.0949 0.2210 1.2876
H34 H 1.0785 0.1595 1.3057
H35 H 1.1403 0.2116 1.3149
O21 O 1.3333 0.6667 0.9570(12)
O22 O 1.3958(17) 0.7821(15) 0.8433(13)
O23 O 1.0344(11) 0.1089(11) 1.2576(10)
loop_
_geom_bond_atom_site_label_1
_geom_bond_atom_site_label_2
_geom_bond_site_symmetry_1
_geom_bond_site_symmetry_2
Co1 O2 1_555 1_555
Co2 O3 1_555 1_555
Co3 O8 1_555 1_555
Co4 O1 1_555 1_555
O1 C1 1_555 1_555
O2 C1 1_555 1_555
O3 C2 1_555 1_555
O4 C2 1_555 1_555
C1 C3 1_555 1_555
C2 C7 1_555 1_555
C3 C4 1_555 1_555
C4 H1 1_555 1_555
C5 C4 1_555 1_555
H2 C5 1_555 1_555
C6 C5 1_555 1_555
H3 C6 1_555 1_555
C7 C6 1_555 1_555
C8 C3 1_555 1_555
H4 C8 1_555 1_555
S1 O5 1_555 1_555
O5 Co1 1_555 1_555
O6 S1 1_555 1_555
O7 S1 1_555 1_555
O8 S1 1_555 1_555
S2 O9 1_555 1_555
O9 Co1 1_555 1_555
O10 Co3 1_555 1_555
O11 S2 1_555 1_555
O12 S2 1_555 1_555
O13 Co1 1_555 1_555
H5 O13 1_555 1_555
O14 Co2 1_555 1_555
H6 O14 1_555 1_555
S3 O15 1_555 1_555
O15 Co4 1_555 1_555
C9 S3 1_555 1_555
H7 C9 1_555 1_555
H8 C9 1_555 1_555
H9 C9 1_555 1_555
C10 S3 1_555 1_555
H10 C10 1_555 1_555
H11 C10 1_555 1_555
H12 C10 1_555 1_555
S4 O16 1_555 1_555
O16 Co1 1_555 1_555
C11 S4 1_555 1_555
H13 C11 1_555 1_555
H14 C11 1_555 1_555
H15 C11 1_555 1_555
C12 S4 1_555 1_555
H16 C12 1_555 1_555
H17 C12 1_555 1_555
H18 C12 1_555 1_555
S5 O17 1_555 1_555
O17 Co1 1_555 1_555
C13 S5 1_555 1_555
H19 C13 1_555 1_555
H20 C13 1_555 1_555
H21 C13 1_555 1_555
C14 S5 1_555 1_555
H22 C14 1_555 1_555
H23 C14 1_555 1_555
H24 C14 1_555 1_555
O18 S6 1_555 1_555
S6 C15 1_555 1_555
C16 S6 1_555 1_555
O19 Co3 1_555 1_555
H25 O19 1_555 1_555
C17 O19 1_555 1_555
H26 C17 1_555 1_555
H27 C17 1_555 1_555
C18 C17 1_555 1_555
H28 C18 1_555 1_555
H29 C18 1_555 1_555
H30 C18 1_555 1_555
O20 C19 1_555 1_555
C19 H31 1_555 1_555
H32 C19 1_555 1_555
C20 C19 1_555 1_555
H33 C20 1_555 1_555
H34 C20 1_555 1_555
H35 C20 1_555 1_555
Co2Q O6 1_555 1_555
Co2G O11 1_555 1_555
Co3K O13 1_555 1_555
Co3P O14 1_555 1_555
Co4P O4 1_555 1_555
O4Q Co4 1_555 1_555
O6P Co2 1_555 1_555
O11E Co2 1_555 1_555
O13E Co2 1_555 1_555
O13J Co3 1_555 1_555
H5E O13E 1_555 1_555
H5J O13J 1_555 1_555
O14Q Co3 1_555 1_555
H6Q O14Q 1_555 1_555
O16J Co3 1_555 1_555
O17E Co2 1_555 1_555
Co4 O5 1_555 1_555
Co4 O9 1_555 1_555
Co4 O14Q 1_555 1_555
C7 C8 1_555 1_555
S2 O10 1_555 1_555
O13 Co2G 1_555 1_555
O14 Co4P 1_555 1_555
O16 Co3K 1_555 1_555
O17 Co2G 1_555 1_555
Co2Q O13J 1_555 1_555
Co2Q O14Q 1_555 1_555
Co3P O13E 1_555 1_555

#END
