
#######################################################################
#
#                 Cambridge Crystallographic Data Centre
#                                CCDC 
#
#######################################################################
#
# If this CIF has been generated from an entry in the Cambridge 
# Structural Database, then it will include bibliographic, chemical, 
# crystal, experimental, refinement or atomic coordinate data resulting 
# from the CCDC's data processing and validation procedures.
#
#######################################################################

data_EKUXIT
_chemical_formula_moiety         'C66 H75 B2 N9 O9 Zn2'
_symmetry_cell_setting           monoclinic
_symmetry_space_group_name_H-M   'P 21/c'
_symmetry_Int_Tables_number      14
_space_group_name_Hall           '-P 2ybc'
loop_
_symmetry_equiv_pos_site_id
_symmetry_equiv_pos_as_xyz
1 x,y,z
2 -x,1/2+y,1/2-z
3 -x,-y,-z
4 x,1/2-y,1/2+z
_cell_length_a                   17.9643(4)
_cell_length_b                   22.2539(9)
_cell_length_c                   20.8724(4)
_cell_angle_alpha                90
_cell_angle_beta                 108.065(2)
_cell_angle_gamma                90
_cell_volume                     7932.95
loop_
_atom_site_label
_atom_site_type_symbol
_atom_site_fract_x
_atom_site_fract_y
_atom_site_fract_z
_atom_site_U_iso_or_equiv
_atom_site_thermal_displace_type
Zn1 Zn 0.01851(4) -0.31574(3) 0.07701(3) 0.0337 Uani
Zn2 Zn -0.06207(4) -0.20916(3) 0.11015(3) 0.0334 Uani
O1 O 0.0277(3) -0.4192(2) -0.0138(2) 0.0425 Uani
O2 O -0.0794(3) -0.2630(2) 0.02424(19) 0.0361 Uani
O3 O -0.1852(3) -0.1103(2) 0.0738(2) 0.0462 Uani
O4 O 0.0957(3) -0.4395(2) 0.1080(2) 0.0444 Uani
O5 O -0.0403(3) -0.2992(2) 0.1485(2) 0.0388 Uani
O6 O -0.1584(3) -0.1501(2) 0.1898(2) 0.0480 Uani
O7 O 0.1565(3) -0.3713(2) 0.0441(2) 0.0461 Uani
O8 O 0.0532(2) -0.2257(2) 0.1106(2) 0.0384 Uani
O9 O -0.0637(3) -0.0811(2) 0.1639(2) 0.0454 Uani
N1 N -0.0188(3) -0.3693(2) -0.0101(2) 0.0366 Uani
N2 N -0.1628(3) -0.1640(3) 0.0491(3) 0.0395 Uani
N3 N 0.0541(3) -0.3965(3) 0.1329(3) 0.0377 Uani
N4 N -0.1151(3) -0.2022(3) 0.1889(3) 0.0403 Uani
N5 N 0.1331(3) -0.3175(3) 0.0672(3) 0.0393 Uani
N6 N -0.0149(3) -0.1222(2) 0.1429(2) 0.0380 Uani
N7 N 0.3677(6) -0.7182(5) -0.0662(5) 0.1074 Uani
B1 B 0.1053(5) -0.4254(4) 0.0400(4) 0.0415 Uani
B2 B -0.1480(5) -0.0986(4) 0.1475(4) 0.0399 Uani
C1 C -0.0845(4) -0.3692(3) -0.0588(3) 0.0365 Uani
H1 H -0.0933 -0.4021 -0.0893 0.0440 Uiso
C2 C -0.1454(4) -0.3248(3) -0.0715(3) 0.0321 Uani
C3 C -0.2132(4) -0.3341(3) -0.1271(3) 0.0408 Uani
H2 H -0.2154 -0.3689 -0.1540 0.0490 Uiso
C4 C -0.2770(4) -0.2953(3) -0.1447(3) 0.0423 Uani
C5 C -0.2707(4) -0.2447(3) -0.1052(3) 0.0432 Uani
H3 H -0.3124 -0.2165 -0.1173 0.0520 Uiso
C6 C -0.2064(4) -0.2324(3) -0.0480(3) 0.0349 Uani
C7 C -0.1418(4) -0.2730(3) -0.0295(3) 0.0336 Uani
C8 C -0.2107(4) -0.1787(3) -0.0099(3) 0.0398 Uani
H4 H -0.2523 -0.1516 -0.0297 0.0480 Uiso
C9 C -0.3510(4) -0.3091(4) -0.2046(4) 0.0595 Uani
C10 C -0.3430(10) -0.3636(8) -0.2455(9) 0.1016 Uani
H5 H -0.2986 -0.3578 -0.2628 0.1530 Uiso
H6 H -0.3340 -0.3994 -0.2169 0.1530 Uiso
H7 H -0.3911 -0.3687 -0.2834 0.1530 Uiso
C11 C -0.3681(10) -0.2532(7) -0.2523(7) 0.0953 Uani
H8 H -0.3735 -0.2174 -0.2268 0.1430 Uiso
H9 H -0.3247 -0.2474 -0.2709 0.1430 Uiso
H10 H -0.4167 -0.2597 -0.2892 0.1430 Uiso
C12 C -0.4193(8) -0.3156(8) -0.1763(8) 0.0790 Uani
H11 H -0.4226 -0.2797 -0.1502 0.1190 Uiso
H12 H -0.4681 -0.3203 -0.2135 0.1190 Uiso
H13 H -0.4110 -0.3510 -0.1471 0.1190 Uiso
C13 C 0.0469(4) -0.4125(3) 0.1910(3) 0.0394 Uani
H14 H 0.0695 -0.4498 0.2093 0.0470 Uiso
C14 C 0.0067(4) -0.3777(3) 0.2308(3) 0.0366 Uani
C15 C 0.0121(4) -0.4020(3) 0.2947(3) 0.0400 Uani
H15 H 0.0409 -0.4381 0.3088 0.0480 Uiso
C16 C -0.0241(4) -0.3745(3) 0.3384(3) 0.0359 Uani
C17 C -0.0662(4) -0.3225(3) 0.3149(3) 0.0393 Uani
H16 H -0.0929 -0.3039 0.3424 0.0470 Uiso
C18 C -0.0714(4) -0.2958(3) 0.2525(3) 0.0362 Uani
C19 C -0.0346(4) -0.3240(3) 0.2084(3) 0.0339 Uani
C20 C -0.1134(4) -0.2383(3) 0.2373(3) 0.0422 Uani
H17 H -0.1423 -0.2266 0.2664 0.0500 Uiso
C21 C -0.0203(4) -0.4007(3) 0.4081(3) 0.0411 Uani
C22 C -0.0038(5) -0.3506(4) 0.4614(3) 0.0580 Uani
H18 H -0.0441 -0.3194 0.4469 0.0870 Uiso
H19 H -0.0047 -0.3674 0.5045 0.0870 Uiso
H20 H 0.0478 -0.3330 0.4666 0.0870 Uiso
C23 C -0.1011(5) -0.4282(4) 0.4035(4) 0.0621 Uani
H21 H -0.1135 -0.4605 0.3699 0.0940 Uiso
H22 H -0.0995 -0.4446 0.4475 0.0940 Uiso
H23 H -0.1415 -0.3970 0.3902 0.0940 Uiso
C24 C 0.0439(5) -0.4492(4) 0.4321(4) 0.0590 Uani
H24 H 0.0343 -0.4816 0.3987 0.0880 Uiso
H25 H 0.0953 -0.4312 0.4375 0.0880 Uiso
H26 H 0.0429 -0.4656 0.4754 0.0880 Uiso
C25 C 0.1888(4) -0.2779(3) 0.0803(3) 0.0415 Uani
H27 H 0.2373 -0.2900 0.0751 0.0500 Uiso
C26 C 0.1828(4) -0.2159(3) 0.1024(3) 0.0394 Uani
C27 C 0.2483(4) -0.1787(3) 0.1084(3) 0.0402 Uani
H28 H 0.2926 -0.1960 0.0998 0.0480 Uiso
C28 C 0.2518(4) -0.1188(3) 0.1260(3) 0.0455 Uani
C29 C 0.1859(4) -0.0958(4) 0.1403(3) 0.0482 Uani
H29 H 0.1867 -0.0550 0.1539 0.0580 Uiso
C30 C 0.1185(4) -0.1305(3) 0.1354(3) 0.0366 Uani
C31 C 0.1156(4) -0.1916(3) 0.1154(3) 0.0371 Uani
C32 C 0.0539(4) -0.0999(3) 0.1509(3) 0.0401 Uani
H30 H 0.0634 -0.0603 0.1683 0.0480 Uiso
C33 C 0.3238(4) -0.0803(4) 0.1272(4) 0.0591 Uani
C34 C 0.3148(6) -0.0149(5) 0.1426(8) 0.1133 Uani
H31 H 0.2662 0.0009 0.1112 0.1700 Uiso
H32 H 0.3130 -0.0110 0.1889 0.1700 Uiso
H33 H 0.3594 0.0080 0.1378 0.1700 Uiso
C35 C 0.3982(5) -0.1073(6) 0.1743(5) 0.0950 Uani
H34 H 0.4019 -0.1496 0.1626 0.1420 Uiso
H35 H 0.4437 -0.0854 0.1698 0.1420 Uiso
H36 H 0.3973 -0.1043 0.2209 0.1420 Uiso
C36 C 0.3322(6) -0.0812(5) 0.0534(5) 0.0816 Uani
H37 H 0.3382 -0.1227 0.0403 0.1230 Uiso
H38 H 0.2852 -0.0636 0.0214 0.1230 Uiso
H39 H 0.3782 -0.0577 0.0531 0.1230 Uiso
C37 C 0.1501(4) -0.4808(3) 0.0191(3) 0.0379 Uani
C38 C 0.2287(4) -0.4936(4) 0.0549(3) 0.0525 Uani
H40 H 0.2545 -0.4696 0.0929 0.0630 Uiso
C39 C 0.2701(5) -0.5399(4) 0.0369(4) 0.0552 Uani
H41 H 0.3230 -0.5467 0.0630 0.0660 Uiso
C40 C 0.2357(4) -0.5767(3) -0.0187(3) 0.0424 Uani
C41 C 0.1576(4) -0.5639(3) -0.0556(3) 0.0409 Uani
H42 H 0.1323 -0.5875 -0.0942 0.0490 Uiso
C42 C 0.1162(4) -0.5174(3) -0.0370(3) 0.0422 Uani
H43 H 0.0633 -0.5104 -0.0632 0.0510 Uiso
C43 C 0.2796(4) -0.6276(3) -0.0370(3) 0.0461 Uani
C44 C 0.3604(5) -0.6249(5) -0.0211(5) 0.0868 Uani
H44 H 0.3861 -0.5897 0.0007 0.1040 Uiso
C45 C 0.4046(5) -0.6691(5) -0.0345(5) 0.0845 Uani
H45 H 0.4600 -0.6657 -0.0220 0.1010 Uiso
C46 C 0.2874(4) -0.7238(3) -0.0875(4) 0.0508 Uani
H46 H 0.2630 -0.7583 -0.1121 0.0610 Uiso
C47 C 0.2424(4) -0.6780(3) -0.0724(3) 0.0421 Uani
H47 H 0.1869 -0.6812 -0.0860 0.0510 Uiso
C48 C -0.1918(4) -0.0421(3) 0.1662(3) 0.0428 Uani
C49 C -0.2210(5) 0.0051(4) 0.1201(4) 0.0700 Uani
H48 H -0.2143 0.0025 0.0768 0.0840 Uiso
C50 C -0.2593(6) 0.0553(4) 0.1347(4) 0.0801 Uani
H49 H -0.2767 0.0862 0.1021 0.0970 Uiso
C51 C -0.2722(5) 0.0603(5) 0.1975(4) 0.0746 Uani
C52 C -0.2416(5) 0.0152(4) 0.2443(4) 0.0561 Uani
H50 H -0.2481 0.0178 0.2877 0.0680 Uiso
C53 C -0.2020(4) -0.0330(3) 0.2294(3) 0.0474 Uani
H51 H -0.1805 -0.0618 0.2638 0.0570 Uiso
C54 C -0.3143(6) 0.1180(4) 0.2089(5) 0.0769 Uani
C55 C -0.3626(6) 0.1526(4) 0.1572(4) 0.0842 Uani
H52 H -0.3710 0.1414 0.1116 0.1010 Uiso
C56 C -0.3986(6) 0.2037(4) 0.1721(4) 0.0969 Uani
H53 H -0.4316 0.2273 0.1367 0.1170 Uiso
N8 N -0.3863(6) 0.2201(4) 0.2388(5) 0.1053 Uani
C57 C -0.3380(6) 0.1856(5) 0.2906(4) 0.0797 Uani
H54 H -0.3296 0.1968 0.3362 0.0960 Uiso
C58 C -0.3020(6) 0.1345(5) 0.2757(5) 0.0785 Uani
H55 H -0.2690 0.1109 0.3111 0.0940 Uiso
N10 N 0.1563(4) -0.1899(3) 0.3502(3) 0.0790 Uani
C67 C 0.2022(7) -0.2171(7) 0.3045(6) 0.0778 Uani
H69 H 0.2244 -0.1835 0.2853 0.0940 Uiso
H70 H 0.2466 -0.2407 0.3335 0.0940 Uiso
C68 C 0.1610(10) -0.2532(7) 0.2526(5) 0.0801 Uani
H71 H 0.1957 -0.2675 0.2277 0.1200 Uiso
H72 H 0.1400 -0.2877 0.2706 0.1200 Uiso
H73 H 0.1177 -0.2303 0.2222 0.1200 Uiso
C69 C 0.1381(8) -0.2479(6) 0.3902(7) 0.0908 Uani
H74 H 0.0991 -0.2356 0.4124 0.1090 Uiso
H75 H 0.1131 -0.2789 0.3564 0.1090 Uiso
C70 C 0.1991(10) -0.2741(7) 0.4377(6) 0.1081 Uani
H76 H 0.1799 -0.3083 0.4577 0.1620 Uiso
H77 H 0.2377 -0.2883 0.4166 0.1620 Uiso
H78 H 0.2237 -0.2448 0.4729 0.1620 Uiso
C71 C 0.1970(8) -0.1451(6) 0.3996(6) 0.0877 Uani
H79 H 0.1556 -0.1216 0.4102 0.1050 Uiso
H80 H 0.2244 -0.1679 0.4410 0.1050 Uiso
C72 C 0.2491(10) -0.1046(8) 0.3919(10) 0.1320 Uani
H81 H 0.2675 -0.0800 0.4327 0.1980 Uiso
H82 H 0.2936 -0.1255 0.3843 0.1980 Uiso
H83 H 0.2240 -0.0788 0.3532 0.1980 Uiso
C73 C 0.0753(6) -0.1723(8) 0.3045(6) 0.0791 Uani
H84 H 0.0822 -0.1437 0.2704 0.0960 Uiso
H85 H 0.0501 -0.2087 0.2801 0.0960 Uiso
C74 C 0.0250(7) -0.1471(9) 0.3337(7) 0.0981 Uani
H86 H -0.0246 -0.1379 0.2990 0.1470 Uiso
H87 H 0.0155 -0.1752 0.3664 0.1470 Uiso
H88 H 0.0478 -0.1099 0.3567 0.1470 Uiso
loop_
_atom_site_aniso_label
_atom_site_aniso_U_11
_atom_site_aniso_U_22
_atom_site_aniso_U_33
_atom_site_aniso_U_23
_atom_site_aniso_U_13
_atom_site_aniso_U_12
Zn1 0.0460(5) 0.0397(5) 0.0213(4) 0.0002(3) 0.0191(3) 0.0054(3)
Zn2 0.0456(5) 0.0370(5) 0.0236(4) 0.0013(3) 0.0193(3) 0.0034(3)
O1 0.056(3) 0.047(3) 0.028(2) -0.005(2) 0.018(2) 0.013(2)
O2 0.052(3) 0.037(3) 0.021(2) -0.0027(19) 0.014(2) 0.000(2)
O3 0.066(3) 0.040(3) 0.033(3) -0.004(2) 0.016(2) 0.018(2)
O4 0.065(3) 0.050(3) 0.027(2) 0.002(2) 0.027(2) 0.018(2)
O5 0.053(3) 0.044(3) 0.028(2) 0.006(2) 0.025(2) 0.012(2)
O6 0.061(3) 0.048(3) 0.048(3) 0.011(2) 0.036(2) 0.016(2)
O7 0.055(3) 0.047(3) 0.048(3) -0.009(2) 0.033(2) 0.006(2)
O8 0.043(3) 0.041(3) 0.037(3) -0.002(2) 0.021(2) 0.001(2)
O9 0.055(3) 0.047(3) 0.043(3) -0.012(2) 0.028(2) 0.005(2)
N1 0.057(4) 0.038(3) 0.024(3) 0.005(2) 0.026(3) 0.008(3)
N2 0.056(4) 0.040(4) 0.031(3) 0.003(3) 0.026(3) 0.012(3)
N3 0.046(3) 0.044(4) 0.030(3) -0.002(3) 0.022(2) 0.013(3)
N4 0.053(4) 0.041(4) 0.034(3) 0.006(3) 0.024(3) 0.014(3)
N5 0.051(4) 0.042(4) 0.030(3) -0.001(3) 0.020(3) 0.007(3)
N6 0.061(4) 0.035(3) 0.026(3) -0.002(2) 0.025(3) 0.009(3)
N7 0.103(7) 0.106(8) 0.121(8) -0.031(6) 0.046(6) 0.018(6)
B1 0.055(5) 0.051(5) 0.025(4) 0.002(4) 0.022(4) 0.006(4)
B2 0.059(5) 0.039(5) 0.030(4) 0.002(3) 0.026(4) 0.011(4)
C1 0.047(4) 0.045(4) 0.023(3) -0.003(3) 0.019(3) -0.001(3)
C2 0.042(4) 0.041(4) 0.021(3) -0.001(3) 0.021(3) 0.002(3)
C3 0.051(4) 0.048(4) 0.030(4) -0.011(3) 0.022(3) -0.003(4)
C4 0.047(4) 0.054(5) 0.030(4) -0.007(3) 0.018(3) 0.000(4)
C5 0.045(4) 0.053(5) 0.036(4) 0.000(3) 0.019(3) 0.011(3)
C6 0.045(4) 0.042(4) 0.024(3) 0.002(3) 0.020(3) 0.008(3)
C7 0.046(4) 0.039(4) 0.021(3) 0.002(3) 0.018(3) 0.000(3)
C8 0.048(4) 0.048(5) 0.027(4) 0.004(3) 0.017(3) 0.009(3)
C9 0.049(4) 0.078(6) 0.045(4) -0.013(4) 0.005(3) 0.010(4)
C10 0.071(11) 0.128(15) 0.079(13) -0.062(12) -0.016(9) 0.018(11)
C11 0.076(11) 0.140(15) 0.049(9) -0.012(10) -0.011(8) 0.016(11)
C12 0.041(8) 0.099(14) 0.082(12) -0.024(10) -0.003(8) 0.007(9)
C13 0.054(4) 0.044(4) 0.026(4) 0.007(3) 0.021(3) 0.008(3)
C14 0.053(4) 0.041(4) 0.021(3) 0.001(3) 0.019(3) 0.004(3)
C15 0.057(4) 0.043(4) 0.025(3) 0.003(3) 0.020(3) 0.005(3)
C16 0.054(4) 0.039(4) 0.023(3) -0.002(3) 0.024(3) -0.001(3)
C17 0.059(4) 0.043(5) 0.026(4) -0.002(3) 0.028(3) 0.008(3)
C18 0.049(4) 0.041(4) 0.025(3) 0.006(3) 0.021(3) 0.003(3)
C19 0.050(4) 0.037(4) 0.021(3) 0.001(3) 0.020(3) 0.005(3)
C20 0.054(4) 0.047(5) 0.036(4) 0.004(3) 0.029(3) 0.007(3)
C21 0.063(5) 0.043(4) 0.025(3) 0.005(3) 0.025(3) 0.005(3)
C22 0.100(6) 0.057(5) 0.025(4) 0.002(3) 0.031(4) 0.005(5)
C23 0.090(6) 0.063(6) 0.045(4) 0.015(4) 0.038(4) -0.005(5)
C24 0.095(6) 0.059(5) 0.032(4) 0.017(4) 0.033(4) 0.013(4)
C25 0.047(4) 0.049(5) 0.033(4) -0.003(3) 0.019(3) 0.003(4)
C26 0.048(4) 0.039(4) 0.031(4) -0.004(3) 0.012(3) 0.003(3)
C27 0.039(4) 0.045(5) 0.041(4) -0.005(3) 0.019(3) 0.003(3)
C28 0.045(4) 0.052(5) 0.042(4) -0.005(3) 0.017(3) -0.001(3)
C29 0.052(5) 0.053(5) 0.040(4) -0.006(3) 0.015(3) -0.004(4)
C30 0.047(4) 0.037(4) 0.028(3) -0.005(3) 0.015(3) 0.002(3)
C31 0.040(4) 0.050(5) 0.026(3) -0.001(3) 0.017(3) 0.001(3)
C32 0.046(4) 0.044(4) 0.036(4) -0.006(3) 0.021(3) -0.006(3)
C33 0.044(4) 0.064(6) 0.074(5) -0.011(4) 0.025(4) -0.010(4)
C34 0.079(7) 0.067(7) 0.216(15) -0.034(8) 0.078(8) -0.022(6)
C35 0.061(6) 0.128(10) 0.087(7) 0.015(7) 0.010(5) -0.017(6)
C36 0.074(6) 0.102(8) 0.075(6) 0.007(6) 0.032(5) -0.009(6)
C37 0.052(4) 0.044(4) 0.026(3) 0.006(3) 0.024(3) 0.007(3)
C38 0.063(5) 0.059(5) 0.034(4) -0.014(4) 0.013(3) 0.006(4)
C39 0.054(5) 0.062(5) 0.049(5) -0.009(4) 0.015(4) 0.014(4)
C40 0.052(4) 0.049(5) 0.036(4) 0.001(3) 0.028(3) 0.006(3)
C41 0.055(4) 0.045(5) 0.030(4) -0.007(3) 0.024(3) 0.001(3)
C42 0.048(4) 0.052(5) 0.033(4) 0.002(3) 0.022(3) 0.006(3)
C43 0.053(5) 0.053(5) 0.042(4) -0.003(4) 0.029(3) 0.001(4)
C44 0.055(6) 0.093(8) 0.118(8) -0.056(6) 0.035(5) -0.003(5)
C45 0.030(4) 0.090(7) 0.129(8) -0.070(7) 0.018(5) 0.004(4)
C46 0.056(5) 0.048(5) 0.060(5) -0.005(4) 0.035(4) 0.005(4)
C47 0.051(4) 0.044(5) 0.042(4) 0.001(3) 0.030(3) 0.002(4)
C48 0.047(4) 0.050(5) 0.035(4) -0.006(3) 0.018(3) -0.001(3)
C49 0.101(7) 0.074(6) 0.035(4) -0.001(4) 0.021(4) 0.036(5)
C50 0.120(8) 0.070(6) 0.045(5) -0.009(4) 0.018(5) 0.053(6)
C51 0.069(6) 0.093(7) 0.051(5) -0.035(5) 0.003(4) 0.030(5)
C52 0.070(5) 0.062(6) 0.049(5) -0.022(4) 0.037(4) -0.007(4)
C53 0.065(5) 0.049(5) 0.036(4) 0.000(3) 0.027(3) -0.006(4)
C54 0.066(5) 0.095(6) 0.064(5) -0.032(5) 0.012(4) 0.034(5)
C55 0.075(5) 0.099(6) 0.067(5) -0.032(5) 0.005(4) 0.042(5)
C56 0.087(6) 0.106(7) 0.080(6) -0.039(6) 0.000(5) 0.047(5)
N8 0.097(6) 0.112(6) 0.091(5) -0.038(5) 0.006(5) 0.030(5)
C57 0.075(5) 0.095(6) 0.064(5) -0.041(5) 0.014(4) 0.031(5)
C58 0.070(5) 0.095(6) 0.065(5) -0.034(4) 0.013(4) 0.026(4)
N10 0.078(4) 0.134(5) 0.033(3) -0.002(3) 0.029(3) -0.005(3)
C67 0.075(5) 0.127(7) 0.038(5) 0.000(5) 0.027(4) 0.003(5)
C68 0.082(7) 0.138(9) 0.024(6) 0.011(6) 0.022(5) 0.008(6)
C69 0.090(6) 0.141(8) 0.053(6) -0.003(6) 0.039(5) -0.013(6)
C70 0.133(10) 0.151(11) 0.056(8) 0.027(8) 0.052(7) -0.013(9)
C71 0.084(5) 0.138(7) 0.047(5) -0.007(5) 0.029(4) -0.009(5)
C72 0.126(11) 0.174(12) 0.105(10) 0.003(10) 0.049(9) 0.008(10)
C73 0.077(5) 0.133(7) 0.036(5) -0.006(5) 0.030(4) -0.003(5)
C74 0.101(9) 0.145(11) 0.052(8) -0.014(8) 0.029(7) 0.004(9)
loop_
_geom_bond_atom_site_label_1
_geom_bond_atom_site_label_2
_geom_bond_site_symmetry_1
_geom_bond_site_symmetry_2
Zn1 O2 1_555 1_555
Zn2 O2 1_555 1_555
O1 N1 1_555 1_555
O2 C7 1_555 1_555
O3 N2 1_555 1_555
O4 N3 1_555 1_555
O5 Zn1 1_555 1_555
O6 N4 1_555 1_555
O7 N5 1_555 1_555
O8 Zn1 1_555 1_555
O9 N6 1_555 1_555
N1 Zn1 1_555 1_555
N2 Zn2 1_555 1_555
N3 Zn1 1_555 1_555
N4 Zn2 1_555 1_555
N5 Zn1 1_555 1_555
N6 Zn2 1_555 1_555
N7 C45 1_555 1_555
B1 O1 1_555 1_555
B2 O3 1_555 1_555
C1 N1 1_555 1_555
H1 C1 1_555 1_555
C2 C1 1_555 1_555
C3 C2 1_555 1_555
H2 C3 1_555 1_555
C4 C3 1_555 1_555
C5 C4 1_555 1_555
H3 C5 1_555 1_555
C6 C5 1_555 1_555
C7 C2 1_555 1_555
C8 N2 1_555 1_555
H4 C8 1_555 1_555
C9 C4 1_555 1_555
C10 C9 1_555 1_555
H5 C10 1_555 1_555
H6 C10 1_555 1_555
H7 C10 1_555 1_555
C11 C9 1_555 1_555
H8 C11 1_555 1_555
H9 C11 1_555 1_555
H10 C11 1_555 1_555
C12 C9 1_555 1_555
H11 C12 1_555 1_555
H12 C12 1_555 1_555
H13 C12 1_555 1_555
C13 N3 1_555 1_555
H14 C13 1_555 1_555
C14 C13 1_555 1_555
C15 C14 1_555 1_555
H15 C15 1_555 1_555
C16 C15 1_555 1_555
C17 C16 1_555 1_555
H16 C17 1_555 1_555
C18 C17 1_555 1_555
C19 O5 1_555 1_555
C20 N4 1_555 1_555
H17 C20 1_555 1_555
C21 C16 1_555 1_555
C22 C21 1_555 1_555
H18 C22 1_555 1_555
H19 C22 1_555 1_555
H20 C22 1_555 1_555
C23 C21 1_555 1_555
H21 C23 1_555 1_555
H22 C23 1_555 1_555
H23 C23 1_555 1_555
C24 C21 1_555 1_555
H24 C24 1_555 1_555
H25 C24 1_555 1_555
H26 C24 1_555 1_555
C25 N5 1_555 1_555
H27 C25 1_555 1_555
C26 C25 1_555 1_555
C27 C26 1_555 1_555
H28 C27 1_555 1_555
C28 C27 1_555 1_555
C29 C28 1_555 1_555
H29 C29 1_555 1_555
C30 C29 1_555 1_555
C31 O8 1_555 1_555
C32 N6 1_555 1_555
H30 C32 1_555 1_555
C33 C28 1_555 1_555
C34 C33 1_555 1_555
H31 C34 1_555 1_555
H32 C34 1_555 1_555
H33 C34 1_555 1_555
C35 C33 1_555 1_555
H34 C35 1_555 1_555
H35 C35 1_555 1_555
H36 C35 1_555 1_555
C36 C33 1_555 1_555
H37 C36 1_555 1_555
H38 C36 1_555 1_555
H39 C36 1_555 1_555
C37 B1 1_555 1_555
C38 C37 1_555 1_555
H40 C38 1_555 1_555
C39 C38 1_555 1_555
H41 C39 1_555 1_555
C40 C39 1_555 1_555
C41 C40 1_555 1_555
H42 C41 1_555 1_555
C42 C37 1_555 1_555
H43 C42 1_555 1_555
C43 C40 1_555 1_555
C44 C43 1_555 1_555
H44 C44 1_555 1_555
C45 C44 1_555 1_555
H45 C45 1_555 1_555
C46 N7 1_555 1_555
H46 C46 1_555 1_555
C47 C43 1_555 1_555
H47 C47 1_555 1_555
C48 B2 1_555 1_555
C49 C48 1_555 1_555
H48 C49 1_555 1_555
C50 C49 1_555 1_555
H49 C50 1_555 1_555
C51 C50 1_555 1_555
C52 C51 1_555 1_555
H50 C52 1_555 1_555
C53 C48 1_555 1_555
H51 C53 1_555 1_555
C54 C51 1_555 1_555
C55 C54 1_555 1_555
H52 C55 1_555 1_555
C56 C55 1_555 1_555
H53 C56 1_555 1_555
N8 C56 1_555 1_555
C57 N8 1_555 1_555
H54 C57 1_555 1_555
C58 C54 1_555 1_555
H55 C58 1_555 1_555
N10 C67 1_555 1_555
C67 H69 1_555 1_555
H70 C67 1_555 1_555
C68 C67 1_555 1_555
H71 C68 1_555 1_555
H72 C68 1_555 1_555
H73 C68 1_555 1_555
C69 N10 1_555 1_555
H74 C69 1_555 1_555
H75 C69 1_555 1_555
C70 C69 1_555 1_555
H76 C70 1_555 1_555
H77 C70 1_555 1_555
H78 C70 1_555 1_555
C71 N10 1_555 1_555
H79 C71 1_555 1_555
H80 C71 1_555 1_555
C72 C71 1_555 1_555
H81 C72 1_555 1_555
H82 C72 1_555 1_555
H83 C72 1_555 1_555
C73 N10 1_555 1_555
H84 C73 1_555 1_555
H85 C73 1_555 1_555
C74 C73 1_555 1_555
H86 C74 1_555 1_555
H87 C74 1_555 1_555
H88 C74 1_555 1_555
Zn2 O5 1_555 1_555
Zn2 O8 1_555 1_555
O4 B1 1_555 1_555
O6 B2 1_555 1_555
O7 B1 1_555 1_555
O9 B2 1_555 1_555
C6 C7 1_555 1_555
C6 C8 1_555 1_555
C14 C19 1_555 1_555
C18 C19 1_555 1_555
C18 C20 1_555 1_555
C26 C31 1_555 1_555
C30 C31 1_555 1_555
C30 C32 1_555 1_555
C41 C42 1_555 1_555
C46 C47 1_555 1_555
C52 C53 1_555 1_555
C57 C58 1_555 1_555

#END
