
#######################################################################
#
#                 Cambridge Crystallographic Data Centre
#                                CCDC 
#
#######################################################################
#
# If this CIF has been generated from an entry in the Cambridge 
# Structural Database, then it will include bibliographic, chemical, 
# crystal, experimental, refinement or atomic coordinate data resulting 
# from the CCDC's data processing and validation procedures.
#
#######################################################################

data_MIYGOR
_chemical_formula_moiety         '(C90 H108 Ag18 N36)n'
_symmetry_cell_setting           tetragonal
_symmetry_space_group_name_H-M   'I -4 2 d'
_symmetry_Int_Tables_number      122
_space_group_name_Hall           'I -4 2bw'
loop_
_symmetry_equiv_pos_site_id
_symmetry_equiv_pos_as_xyz
1 x,y,z
2 y,-x,-z
3 -x,-y,z
4 -y,x,-z
5 x,1/2-y,1/4-z
6 1/2-y,-x,3/4+z
7 -x,1/2+y,1/4-z
8 1/2+y,x,3/4+z
9 1/2+x,1/2+y,1/2+z
10 1/2+y,1/2-x,1/2-z
11 1/2-x,1/2-y,1/2+z
12 1/2-y,1/2+x,1/2-z
13 1/2+x,-y,3/4-z
14 -y,1/2-x,1/4+z
15 1/2-x,y,3/4-z
16 y,1/2+x,1/4+z
_cell_length_a                   27.1756(8)
_cell_length_b                   27.1756(8)
_cell_length_c                   81.019(3)
_cell_angle_alpha                90
_cell_angle_beta                 90
_cell_angle_gamma                90
_cell_volume                     59833.6
loop_
_atom_site_label
_atom_site_type_symbol
_atom_site_fract_x
_atom_site_fract_y
_atom_site_fract_z
Ag1 Ag 0.25590(12) 0.53163(14) 0.31377(4)
Ag2 Ag 0.27808(13) 0.44892(14) 0.28373(4)
Ag3 Ag 0.67441(13) 0.47723(14) 0.46867(4)
Ag4 Ag 0.11895(14) 0.22825(14) 0.21395(5)
Ag5 Ag 0.53174(13) -0.13690(13) 0.53176(4)
Ag6 Ag 0.54009(14) -0.23050(13) 0.50333(5)
Ag7 Ag 0.25760(12) -0.02769(12) 0.47461(4)
Ag8 Ag 0.33389(12) -0.01601(12) 0.44251(4)
Ag9 Ag 0.22926(12) 0.05892(12) 0.44569(4)
Ag10 Ag 0.11067(12) 0.20710(13) 0.54052(4)
Ag11 Ag 0.46731(12) 0.29963(13) 0.07322(4)
Ag12 Ag 0.02705(12) 0.10976(14) 0.54506(4)
Ag13 Ag 0.33113(12) 0.01664(14) 0.11543(4)
Ag14 Ag 0.24826(12) -0.00586(13) 0.14500(4)
Ag15 Ag 0.22725(12) 0.08957(15) 0.11752(4)
Ag16 Ag 0.48094(12) 0.35939(12) 0.37938(4)
Ag17 Ag 0.47586(13) 0.26325(13) 0.40527(4)
Ag18 Ag 0.39632(13) 0.26940(12) 0.37175(4)
N1 N 0.3169(16) 0.4773(14) 0.3169(3)
N2 N 0.3248(11) 0.4489(11) 0.3031(3)
N3 N 0.2207(12) 0.4353(10) 0.2672(4)
N4 N 0.1818(10) 0.4678(11) 0.2659(5)
N5 N 0.6623(14) 0.4284(16) 0.4506(5)
N6 N 0.6906(16) 0.4265(18) 0.4365(5)
N7 N 0.1153(15) 0.1754(14) 0.1976(5)
N8 N 0.0788(12) 0.1401(13) 0.1981(4)
N9 N 0.4863(9) -0.1356(10) 0.5109(3)
N10 N 0.4919(10) -0.1770(11) 0.5013(4)
N11 N 0.0892(13) 0.2847(15) 0.2434(5)
N12 N 0.1254(15) 0.2825(15) 0.2315(5)
N13 N 0.3212(11) -0.0660(10) 0.4738(3)
N14 N 0.3545(13) -0.0623(10) 0.4610(4)
N15 N 0.3252(11) 0.0395(11) 0.4270(3)
N16 N 0.2854(10) 0.0711(13) 0.4273(4)
N17 N 0.1867(10) 0.0545(11) 0.4660(4)
N18 N 0.1978(12) 0.0195(13) 0.4777(3)
N19 N 0.3851(11) 0.2421(11) 0.0581(4)
N20 N 0.4170(13) 0.2437(13) 0.0714(4)
N21 N 0.4809(11) -0.1437(11) 0.1735(3)
N22 N 0.4779(11) -0.1089(10) 0.1859(3)
N23 N 0.0765(10) 0.1098(9) 0.5255(3)
N24 N 0.1038(12) 0.1518(11) 0.5226(4)
N25 N 0.3507(9) -0.0326(10) 0.1338(3)
N26 N 0.3152(10) -0.0443(9) 0.1453(3)
N27 N 0.1852(8) 0.0415(8) 0.1471(2)
N28 N 0.1819(9) 0.0825(8) 0.1371(3)
N29 N 0.2818(10) 0.1026(11) 0.1000(4)
N30 N 0.3236(9) 0.0739(11) 0.0990(4)
N31 N 0.5282(10) 0.3561(10) 0.3985(3)
N32 N 0.5259(12) 0.3189(12) 0.4101(4)
N33 N 0.4218(11) 0.2120(12) 0.4017(4)
N34 N 0.3881(15) 0.2187(14) 0.3891(5)
N35 N 0.4019(12) 0.3308(12) 0.3557(4)
N36 N 0.4341(11) 0.3670(13) 0.3607(4)
C1 C 0.331(2) 0.4937(17) 0.3467(5)
H1 H 0.3074 0.5205 0.3451
H2 H 0.3638 0.5074 0.3486
H3 H 0.3211 0.4740 0.3563
C2 C 0.3317(12) 0.4617(11) 0.3317(3)
C3 C 0.3609(12) 0.4227(11) 0.3265(3)
C4 C 0.3540(14) 0.4148(12) 0.3097(3)
C5 C 0.364(3) 0.3685(17) 0.3003(8)
H4 H 0.3525 0.3726 0.2889
H5 H 0.3458 0.3412 0.3055
H6 H 0.3990 0.3615 0.3004
C6 C 0.2506(14) 0.3502(12) 0.2577(5)
H7 H 0.2825 0.3593 0.2625
H8 H 0.2549 0.3417 0.2461
H9 H 0.2372 0.3218 0.2637
C7 C 0.2158(9) 0.3926(10) 0.2592(4)
C8 C 0.1674(9) 0.3934(9) 0.2537(4)
C9 C 0.1482(9) 0.4374(9) 0.2596(4)
C10 C 0.0990(10) 0.4582(13) 0.2551(4)
H10 H 0.0953 0.4908 0.2601
H11 H 0.0730 0.4364 0.2593
H12 H 0.0964 0.4608 0.2431
C11 C 0.5787(13) 0.4054(16) 0.4572(5)
H13 H 0.5883 0.4213 0.4676
H14 H 0.5693 0.3712 0.4594
H15 H 0.5508 0.4230 0.4523
C12 C 0.6211(13) 0.4063(18) 0.4454(4)
C13 C 0.6243(12) 0.3878(17) 0.4295(4)
C14 C 0.6703(14) 0.4025(18) 0.4238(5)
C15 C 0.692(2) 0.389(2) 0.4076(5)
H16 H 0.7249 0.4043 0.4065
H17 H 0.6711 0.4004 0.3986
H18 H 0.6960 0.3531 0.4069
C16 C 0.182(2) 0.192(2) 0.1768(8)
H19 H 0.1898 0.2202 0.1841
H20 H 0.2104 0.1706 0.1760
H21 H 0.1735 0.2050 0.1658
C17 C 0.1390(16) 0.165(2) 0.1837(6)
C18 C 0.1223(13) 0.1215(13) 0.1764(4)
C19 C 0.0828(11) 0.1067(12) 0.1861(4)
C20 C 0.0508(15) 0.0634(18) 0.1823(7)
H22 H 0.0258 0.0599 0.1910
H23 H 0.0346 0.0684 0.1716
H24 H 0.0710 0.0335 0.1819
C21 C 0.4471(13) -0.0621(16) 0.5157(5)
H25 H 0.4723 -0.0631 0.5243
H26 H 0.4496 -0.0310 0.5096
H27 H 0.4144 -0.0647 0.5207
C22 C 0.4547(11) -0.1041(11) 0.5040(4)
C23 C 0.4313(11) -0.1269(11) 0.4908(4)
C24 C 0.4581(13) -0.1702(15) 0.4895(5)
C25 C 0.447(2) -0.204(2) 0.4754(6)
H28 H 0.4691 -0.2326 0.4759
H29 H 0.4129 -0.2151 0.4761
H30 H 0.4522 -0.1865 0.4650
C26 C 0.077(2) 0.3350(18) 0.2681(4)
H31 H 0.0494 0.3117 0.2695
H32 H 0.1010 0.3295 0.2770
H33 H 0.0649 0.3685 0.2684
C27 C 0.1012(13) 0.3252(11) 0.2518(4)
C28 C 0.1450(11) 0.3478(12) 0.2472(4)
C29 C 0.1567(14) 0.3199(14) 0.2334(4)
C30 C 0.1945(16) 0.3287(14) 0.2203(5)
H34 H 0.1926 0.3026 0.2120
H35 H 0.1884 0.3606 0.2151
H36 H 0.2274 0.3287 0.2253
C31 C 0.325(3) -0.112(3) 0.5011(7)
H37 H 0.2907 -0.1016 0.5026
H38 H 0.3257 -0.1483 0.4998
H39 H 0.3444 -0.1029 0.5107
C32 C 0.3457(14) -0.0887(11) 0.4860(4)
C33 C 0.3935(17) -0.1004(11) 0.4812(4)
C34 C 0.3962(13) -0.0857(11) 0.4648(3)
C35 C 0.4426(19) -0.0850(13) 0.4549(6)
H40 H 0.4364 -0.0693 0.4442
H41 H 0.4679 -0.0664 0.4609
H42 H 0.4540 -0.1188 0.4532
C36 C 0.4055(15) 0.0450(12) 0.4167(5)
H43 H 0.4053 0.0125 0.4219
H44 H 0.4113 0.0414 0.4048
H45 H 0.4317 0.0651 0.4216
C37 C 0.3570(11) 0.0696(12) 0.4195(4)
C38 C 0.3397(11) 0.1153(11) 0.4145(5)
C39 C 0.2914(10) 0.1149(10) 0.4202(4)
C40 C 0.2520(11) 0.1533(11) 0.4201(4)
H46 H 0.2227 0.1406 0.4258
H47 H 0.2639 0.1827 0.4259
H48 H 0.2436 0.1618 0.4087
C41 C 0.1420(13) 0.134(2) 0.4660(7)
H49 H 0.1552 0.1354 0.4548
H50 H 0.1060 0.1356 0.4656
H51 H 0.1549 0.1611 0.4726
C42 C 0.1570(10) 0.0860(12) 0.4738(3)
C43 C 0.1457(10) 0.0708(12) 0.4897(3)
C44 C 0.1753(12) 0.0297(13) 0.4920(4)
C45 C 0.1810(18) -0.007(2) 0.5057(6)
H52 H 0.2048 -0.0321 0.5024
H53 H 0.1939 0.0104 0.5155
H54 H 0.1496 -0.0217 0.5082
C46 C 0.3147(13) 0.1900(16) 0.0502(5)
H55 H 0.3163 0.2103 0.0402
H56 H 0.2823 0.1940 0.0554
H57 H 0.3196 0.1554 0.0473
C47 C 0.3539(11) 0.2058(11) 0.0620(3)
C48 C 0.3667(13) 0.1833(13) 0.0768(4)
C49 C 0.4076(15) 0.2088(15) 0.0826(4)
C50 C 0.4320(16) 0.2069(17) 0.0991(4)
H58 H 0.4586 0.2313 0.0995
H59 H 0.4457 0.1740 0.1009
H60 H 0.4078 0.2142 0.1077
C51 C 0.425(3) -0.174(3) 0.1502(9)
H61 H 0.4447 -0.2041 0.1502
H62 H 0.4242 -0.1597 0.1392
H63 H 0.3908 -0.1826 0.1535
C52 C 0.4456(12) -0.1382(10) 0.1623(4)
C53 C 0.4276(11) -0.0908(11) 0.1645(4)
C54 C 0.4442(15) -0.0776(14) 0.1801(4)
C55 C 0.435(4) -0.036(3) 0.1916(11)
H64 H 0.4564 -0.0391 0.2013
H65 H 0.4006 -0.0359 0.1951
H66 H 0.4424 -0.0046 0.1860
C56 C 0.0659(13) 0.0268(9) 0.5143(5)
H67 H 0.0407 0.0252 0.5230
H68 H 0.0926 0.0038 0.5170
H69 H 0.0512 0.0177 0.5037
C57 C 0.0860(11) 0.0779(9) 0.5133(3)
C58 C 0.1233(11) 0.0976(10) 0.5036(3)
C59 C 0.1337(18) 0.1441(12) 0.5098(5)
C60 C 0.1681(14) 0.1831(13) 0.5038(5)
H70 H 0.1650 0.2124 0.5108
H71 H 0.1600 0.1916 0.4924
H72 H 0.2020 0.1709 0.5043
C61 C 0.4416(14) -0.0430(19) 0.1310(7)
H73 H 0.4361 -0.0266 0.1204
H74 H 0.4560 -0.0755 0.1291
H75 H 0.4640 -0.0232 0.1377
C62 C 0.3936(11) -0.0486(11) 0.1398(3)
C63 C 0.3859(8) -0.0695(10) 0.1552(3)
C64 C 0.3356(8) -0.0668(11) 0.1582(3)
C65 C 0.318(4) -0.090(2) 0.1740(6)
H76 H 0.2820 -0.0870 0.1746
H77 H 0.3327 -0.0723 0.1834
H78 H 0.3276 -0.1243 0.1742
C66 C 0.1615(17) 0.0103(15) 0.1748(5)
H79 H 0.1833 -0.0172 0.1720
H80 H 0.1275 -0.0016 0.1756
H81 H 0.1715 0.0240 0.1855
C67 C 0.1649(11) 0.0492(11) 0.1619(3)
C68 C 0.1421(14) 0.0950(11) 0.1619(4)
C69 C 0.1585(11) 0.1141(10) 0.1470(3)
C70 C 0.1459(16) 0.1642(11) 0.1406(6)
H82 H 0.1632 0.1700 0.1302
H83 H 0.1558 0.1890 0.1488
H84 H 0.1103 0.1663 0.1388
C71 C 0.2506(15) 0.1784(15) 0.0907(6)
H85 H 0.2214 0.1645 0.0960
H86 H 0.2420 0.1896 0.0795
H87 H 0.2628 0.2063 0.0971
C72 C 0.2897(10) 0.1399(14) 0.0896(6)
C73 C 0.3394(10) 0.1450(9) 0.0859(4)
C74 C 0.3578(10) 0.0999(9) 0.0910(4)
C75 C 0.4066(12) 0.0756(18) 0.0887(6)
H88 H 0.4065 0.0434 0.0941
H89 H 0.4325 0.0962 0.0935
H90 H 0.4129 0.0713 0.0768
C76 C 0.5770(16) 0.427(2) 0.3936(6)
H91 H 0.5552 0.4278 0.3840
H92 H 0.5714 0.4565 0.4004
H93 H 0.6114 0.4267 0.3899
C77 C 0.5669(17) 0.3822(16) 0.4037(5)
C78 C 0.5865(11) 0.3662(13) 0.4186(4)
C79 C 0.5635(11) 0.3210(12) 0.4206(4)
C80 C 0.5650(14) 0.2881(16) 0.4354(4)
H94 H 0.5422 0.2605 0.4338
H95 H 0.5985 0.2753 0.4369
H96 H 0.5553 0.3067 0.4452
C81 C 0.433(2) 0.167(2) 0.4282(4)
H97 H 0.4626 0.1867 0.4292
H98 H 0.4096 0.1756 0.4370
H99 H 0.4415 0.1317 0.4293
C82 C 0.4094(11) 0.1752(10) 0.4118(3)
C83 C 0.3660(10) 0.1550(9) 0.4058(3)
C84 C 0.3572(13) 0.1811(13) 0.3913(3)
C85 C 0.316(2) 0.1730(17) 0.3793(6)
H100 H 0.3196 0.1959 0.3700
H101 H 0.3169 0.1392 0.3753
H102 H 0.2845 0.1793 0.3849
C86 C 0.3348(15) 0.3104(14) 0.3363(5)
H103 H 0.3387 0.2776 0.3411
H104 H 0.3024 0.3237 0.3392
H105 H 0.3376 0.3082 0.3242
C87 C 0.3741(10) 0.3438(15) 0.3428(5)
C88 C 0.3832(10) 0.3934(11) 0.3399(3)
C89 C 0.4217(11) 0.4038(11) 0.3506(4)
C90 C 0.4450(14) 0.454(2) 0.3500(8)
H106 H 0.4711 0.4556 0.3583
H107 H 0.4590 0.4591 0.3390
H108 H 0.4200 0.4788 0.3523
Ag1L Ag 0.75590(12) 0.46837(14) 0.43623(4)
Ag3L Ag 0.17441(13) 0.52277(14) 0.28133(4)
Ag5L Ag 0.03174(13) 0.13690(13) 0.21824(4)
Ag6L Ag 0.04009(14) 0.23050(13) 0.24667(5)
Ag10J Ag 0.38933(12) 0.29290(13) 0.04052(4)
Ag11F Ag 0.53269(12) -0.20037(13) 0.17678(4)
Ag12L Ag 0.52705(12) -0.10976(14) 0.20494(4)
N4L N 0.6818(10) 0.5322(11) 0.4841(5)
N6L N 0.1906(16) 0.5735(18) 0.3135(5)
N8L N 0.5788(12) -0.1401(13) 0.5519(4)
N11L N 0.5892(13) -0.2847(15) 0.5066(5)
N19J N 0.1149(11) 0.2579(11) 0.5581(4)
N21F N 0.5191(11) 0.3563(11) 0.0765(3)
N22L N -0.0221(11) 0.1089(10) 0.5641(3)
loop_
_geom_bond_atom_site_label_1
_geom_bond_atom_site_label_2
_geom_bond_site_symmetry_1
_geom_bond_site_symmetry_2
Ag1 N1 1_555 1_555
Ag2 N2 1_555 1_555
Ag3 N5 1_555 1_555
Ag4 N7 1_555 1_555
Ag5 N9 1_555 1_555
Ag6 N10 1_555 1_555
Ag7 N13 1_555 1_555
Ag8 N14 1_555 1_555
Ag9 N16 1_555 1_555
Ag10 N24 1_555 1_555
Ag11 N20 1_555 1_555
Ag12 N23 1_555 1_555
Ag13 N25 1_555 1_555
Ag14 N26 1_555 1_555
Ag15 N28 1_555 1_555
Ag16 N31 1_555 1_555
Ag17 N32 1_555 1_555
Ag18 N34 1_555 1_555
N1 N2 1_555 1_555
N2 C4 1_555 1_555
N3 Ag2 1_555 1_555
N4 N3 1_555 1_555
N5 N6 1_555 1_555
N6 C14 1_555 1_555
N7 N8 1_555 1_555
N8 C19 1_555 1_555
N9 N10 1_555 1_555
N10 C24 1_555 1_555
N11 N12 1_555 1_555
N12 Ag4 1_555 1_555
N13 N14 1_555 1_555
N14 C34 1_555 1_555
N15 Ag8 1_555 1_555
N16 N15 1_555 1_555
N17 Ag9 1_555 1_555
N18 Ag7 1_555 1_555
N19 N20 1_555 1_555
N20 C49 1_555 1_555
N21 N22 1_555 1_555
N22 C54 1_555 1_555
N23 N24 1_555 1_555
N24 C59 1_555 1_555
N25 N26 1_555 1_555
N26 C64 1_555 1_555
N27 Ag14 1_555 1_555
N28 N27 1_555 1_555
N29 Ag15 1_555 1_555
N30 Ag13 1_555 1_555
N31 N32 1_555 1_555
N32 C79 1_555 1_555
N33 Ag17 1_555 1_555
N34 N33 1_555 1_555
N35 Ag18 1_555 1_555
N36 Ag16 1_555 1_555
C1 H1 1_555 1_555
H2 C1 1_555 1_555
H3 C1 1_555 1_555
C2 N1 1_555 1_555
C3 C2 1_555 1_555
C4 C3 1_555 1_555
C5 C4 1_555 1_555
H4 C5 1_555 1_555
H5 C5 1_555 1_555
H6 C5 1_555 1_555
C6 H7 1_555 1_555
H8 C6 1_555 1_555
H9 C6 1_555 1_555
C7 N3 1_555 1_555
C8 C7 1_555 1_555
C9 N4 1_555 1_555
C10 C9 1_555 1_555
H10 C10 1_555 1_555
H11 C10 1_555 1_555
H12 C10 1_555 1_555
C11 H13 1_555 1_555
H14 C11 1_555 1_555
H15 C11 1_555 1_555
C12 N5 1_555 1_555
C13 C12 1_555 1_555
C14 C13 1_555 1_555
C15 C14 1_555 1_555
H16 C15 1_555 1_555
H17 C15 1_555 1_555
H18 C15 1_555 1_555
C16 H19 1_555 1_555
H20 C16 1_555 1_555
H21 C16 1_555 1_555
C17 N7 1_555 1_555
C18 C17 1_555 1_555
C19 C18 1_555 1_555
C20 C19 1_555 1_555
H22 C20 1_555 1_555
H23 C20 1_555 1_555
H24 C20 1_555 1_555
C21 H25 1_555 1_555
H26 C21 1_555 1_555
H27 C21 1_555 1_555
C22 N9 1_555 1_555
C23 C22 1_555 1_555
C24 C23 1_555 1_555
C25 C24 1_555 1_555
H28 C25 1_555 1_555
H29 C25 1_555 1_555
H30 C25 1_555 1_555
C26 H31 1_555 1_555
H32 C26 1_555 1_555
H33 C26 1_555 1_555
C27 N11 1_555 1_555
C28 C8 1_555 1_555
C29 N12 1_555 1_555
C30 C29 1_555 1_555
H34 C30 1_555 1_555
H35 C30 1_555 1_555
H36 C30 1_555 1_555
C31 H37 1_555 1_555
H38 C31 1_555 1_555
H39 C31 1_555 1_555
C32 N13 1_555 1_555
C33 C23 1_555 1_555
C34 C33 1_555 1_555
C35 C34 1_555 1_555
H40 C35 1_555 1_555
H41 C35 1_555 1_555
H42 C35 1_555 1_555
C36 H43 1_555 1_555
H44 C36 1_555 1_555
H45 C36 1_555 1_555
C37 N15 1_555 1_555
C38 C37 1_555 1_555
C39 N16 1_555 1_555
C40 C39 1_555 1_555
H46 C40 1_555 1_555
H47 C40 1_555 1_555
H48 C40 1_555 1_555
C41 H49 1_555 1_555
H50 C41 1_555 1_555
H51 C41 1_555 1_555
C42 N17 1_555 1_555
C43 C42 1_555 1_555
C44 N18 1_555 1_555
C45 C44 1_555 1_555
H52 C45 1_555 1_555
H53 C45 1_555 1_555
H54 C45 1_555 1_555
C46 H55 1_555 1_555
H56 C46 1_555 1_555
H57 C46 1_555 1_555
C47 N19 1_555 1_555
C48 C47 1_555 1_555
C49 C48 1_555 1_555
C50 C49 1_555 1_555
H58 C50 1_555 1_555
H59 C50 1_555 1_555
H60 C50 1_555 1_555
C51 H61 1_555 1_555
H62 C51 1_555 1_555
H63 C51 1_555 1_555
C52 N21 1_555 1_555
C53 C52 1_555 1_555
C54 C53 1_555 1_555
C55 C54 1_555 1_555
H64 C55 1_555 1_555
H65 C55 1_555 1_555
H66 C55 1_555 1_555
C56 H67 1_555 1_555
H68 C56 1_555 1_555
H69 C56 1_555 1_555
C57 N23 1_555 1_555
C58 C43 1_555 1_555
C59 C58 1_555 1_555
C60 C59 1_555 1_555
H70 C60 1_555 1_555
H71 C60 1_555 1_555
H72 C60 1_555 1_555
C61 H73 1_555 1_555
H74 C61 1_555 1_555
H75 C61 1_555 1_555
C62 N25 1_555 1_555
C63 C53 1_555 1_555
C64 C63 1_555 1_555
C65 C64 1_555 1_555
H76 C65 1_555 1_555
H77 C65 1_555 1_555
H78 C65 1_555 1_555
C66 H79 1_555 1_555
H80 C66 1_555 1_555
H81 C66 1_555 1_555
C67 N27 1_555 1_555
C68 C18 1_555 1_555
C69 N28 1_555 1_555
C70 C69 1_555 1_555
H82 C70 1_555 1_555
H83 C70 1_555 1_555
H84 C70 1_555 1_555
C71 H85 1_555 1_555
H86 C71 1_555 1_555
H87 C71 1_555 1_555
C72 N29 1_555 1_555
C73 C48 1_555 1_555
C74 N30 1_555 1_555
C75 C74 1_555 1_555
H88 C75 1_555 1_555
H89 C75 1_555 1_555
H90 C75 1_555 1_555
C76 H91 1_555 1_555
H92 C76 1_555 1_555
H93 C76 1_555 1_555
C77 N31 1_555 1_555
C78 C13 1_555 1_555
C79 C78 1_555 1_555
C80 C79 1_555 1_555
H94 C80 1_555 1_555
H95 C80 1_555 1_555
H96 C80 1_555 1_555
C81 H97 1_555 1_555
H98 C81 1_555 1_555
H99 C81 1_555 1_555
C82 N33 1_555 1_555
C83 C38 1_555 1_555
C84 N34 1_555 1_555
C85 C84 1_555 1_555
H100 C85 1_555 1_555
H101 C85 1_555 1_555
H102 C85 1_555 1_555
C86 H103 1_555 1_555
H104 C86 1_555 1_555
H105 C86 1_555 1_555
C87 N35 1_555 1_555
C88 C3 1_555 1_555
C89 N36 1_555 1_555
C90 C89 1_555 1_555
H106 C90 1_555 1_555
H107 C90 1_555 1_555
H108 C90 1_555 1_555
Ag1L N6 1_555 1_555
Ag3L N4 1_555 1_555
Ag5L N8 1_555 1_555
Ag6L N11 1_555 1_555
Ag10J N19 1_555 1_555
Ag11F N21 1_555 1_555
Ag12L N22 1_555 1_555
N4L Ag3 1_555 1_555
N6L Ag1 1_555 1_555
N8L Ag5 1_555 1_555
N11L Ag6 1_555 1_555
N19J Ag10 1_555 1_555
N21F Ag11 1_555 1_555
N22L Ag12 1_555 1_555
N17 N18 1_555 1_555
N29 N30 1_555 1_555
N35 N36 1_555 1_555
C1 C2 1_555 1_555
C6 C7 1_555 1_555
C8 C9 1_555 1_555
C11 C12 1_555 1_555
C16 C17 1_555 1_555
C21 C22 1_555 1_555
C26 C27 1_555 1_555
C27 C28 1_555 1_555
C28 C29 1_555 1_555
C31 C32 1_555 1_555
C32 C33 1_555 1_555
C36 C37 1_555 1_555
C38 C39 1_555 1_555
C41 C42 1_555 1_555
C43 C44 1_555 1_555
C46 C47 1_555 1_555
C51 C52 1_555 1_555
C56 C57 1_555 1_555
C57 C58 1_555 1_555
C61 C62 1_555 1_555
C62 C63 1_555 1_555
C66 C67 1_555 1_555
C67 C68 1_555 1_555
C68 C69 1_555 1_555
C71 C72 1_555 1_555
C72 C73 1_555 1_555
C73 C74 1_555 1_555
C76 C77 1_555 1_555
C77 C78 1_555 1_555
C81 C82 1_555 1_555
C82 C83 1_555 1_555
C83 C84 1_555 1_555
C86 C87 1_555 1_555
C87 C88 1_555 1_555
C88 C89 1_555 1_555

#END
