
#######################################################################
#
#                 Cambridge Crystallographic Data Centre
#                                CCDC 
#
#######################################################################
#
# If this CIF has been generated from an entry in the Cambridge 
# Structural Database, then it will include bibliographic, chemical, 
# crystal, experimental, refinement or atomic coordinate data resulting 
# from the CCDC's data processing and validation procedures.
#
#######################################################################

data_MIYGUX
_chemical_formula_moiety         '(C10 H12 Cu2 N4)n'
_symmetry_cell_setting           cubic
_symmetry_space_group_name_H-M   'I -4 3 d'
_symmetry_Int_Tables_number      220
_space_group_name_Hall           'I -4bd 2c 3'
loop_
_symmetry_equiv_pos_site_id
_symmetry_equiv_pos_as_xyz
1 x,y,z
2 1/2-x,-y,1/2+z
3 -x,1/2+y,1/2-z
4 1/2+x,1/2-y,-z
5 z,x,y
6 1/2+z,1/2-x,-y
7 1/2-z,-x,1/2+y
8 -z,1/2+x,1/2-y
9 y,z,x
10 -y,1/2+z,1/2-x
11 1/2+y,1/2-z,-x
12 1/2-y,-z,1/2+x
13 1/4+y,1/4+x,1/4+z
14 1/4-y,3/4-x,3/4+z
15 3/4+y,1/4-x,3/4-z
16 3/4-y,3/4+x,1/4-z
17 1/4+x,1/4+z,1/4+y
18 3/4-x,3/4+z,1/4-y
19 1/4-x,3/4-z,3/4+y
20 3/4+x,1/4-z,3/4-y
21 1/4+z,1/4+y,1/4+x
22 3/4+z,1/4-y,3/4-x
23 3/4-z,3/4+y,1/4-x
24 1/4-z,3/4-y,3/4+x
25 1/2+x,1/2+y,1/2+z
26 -x,1/2-y,z
27 1/2-x,y,-z
28 x,-y,1/2-z
29 1/2+z,1/2+x,1/2+y
30 z,-x,1/2-y
31 -z,1/2-x,y
32 1/2-z,x,-y
33 1/2+y,1/2+z,1/2+x
34 1/2-y,z,-x
35 y,-z,1/2-x
36 -y,1/2-z,x
37 3/4+y,3/4+x,3/4+z
38 3/4-y,1/4-x,1/4+z
39 1/4+y,3/4-x,1/4-z
40 1/4-y,1/4+x,3/4-z
41 3/4+x,3/4+z,3/4+y
42 1/4-x,1/4+z,3/4-y
43 3/4-x,1/4-z,1/4+y
44 1/4+x,3/4-z,1/4-y
45 3/4+z,3/4+y,3/4+x
46 1/4+z,3/4-y,1/4-x
47 1/4-z,1/4+y,3/4-x
48 3/4-z,1/4-y,1/4+x
_cell_length_a                   26.407(3)
_cell_length_b                   26.407(3)
_cell_length_c                   26.407(3)
_cell_angle_alpha                90
_cell_angle_beta                 90
_cell_angle_gamma                90
_cell_volume                     18414.4
loop_
_atom_site_label
_atom_site_type_symbol
_atom_site_fract_x
_atom_site_fract_y
_atom_site_fract_z
_atom_site_U_iso_or_equiv
_atom_site_thermal_displace_type
Cu1 Cu 0.42337(7) 0.98434(7) 0.00135(7) 0.1029 Uani
Cu2 Cu 0.23233(7) 1.14869(7) 0.23430(7) 0.1042 Uani
N1 N 0.4109(6) 1.0320(5) 0.0517(5) 0.1197 Uani
N2 N 0.4471(5) 1.0691(6) 0.0597(5) 0.1107 Uani
C1 C 0.3243(6) 1.0125(6) 0.0714(7) 0.1290 Uani
H1 H 0.3179 1.0050 0.0364 0.1930 Uiso
H2 H 0.2957 1.0300 0.0855 0.1930 Uiso
H3 H 0.3297 0.9815 0.0896 0.1930 Uiso
C2 C 0.3702(7) 1.0449(7) 0.0755(6) 0.1080 Uani
C3 C 0.3744(7) 1.0922(7) 0.0982(7) 0.1207 Uani
C4 C 0.4266(9) 1.1061(6) 0.0875(7) 0.1317 Uani
C5 C 0.4565(6) 1.1508(6) 0.1012(6) 0.1230 Uani
H4 H 0.4354 1.1803 0.0998 0.1850 Uiso
H5 H 0.4841 1.1545 0.0779 0.1850 Uiso
H6 H 0.4695 1.1467 0.1349 0.1850 Uiso
N3 N 0.2843(5) 1.1469(5) 0.1874(6) 0.1160 Uani
N4 N 0.2854(6) 1.1842(6) 0.1501(6) 0.1270 Uani
C6 C 0.3240(6) 1.0633(6) 0.2038(6) 0.1290 Uani
H7 H 0.3258 1.0728 0.2388 0.1940 Uiso
H8 H 0.3557 1.0486 0.1936 0.1940 Uiso
H9 H 0.2973 1.0391 0.1991 0.1940 Uiso
C7 C 0.3137(6) 1.1092(6) 0.1723(6) 0.1013 Uani
C8 C 0.3378(6) 1.1234(7) 0.1257(7) 0.1137 Uani
C9 C 0.3181(6) 1.1711(7) 0.1134(8) 0.1170 Uani
C10 C 0.3276(7) 1.2045(6) 0.0713(6) 0.1260 Uani
H10 H 0.3173 1.2382 0.0801 0.1890 Uiso
H11 H 0.3087 1.1932 0.0424 0.1890 Uiso
H12 H 0.3631 1.2043 0.0635 0.1890 Uiso
Cu1E Cu 0.50135(7) 1.07663(7) 0.01566(7) 0.1029 Uani
Cu2D Cu 0.23430(7) 1.23233(7) 0.14869(7) 0.1042 Uani
N2K N 0.4309(6) 0.9403(5) -0.0529(5) 0.1107 Uani
N4H N 0.1842(6) 1.1501(6) 0.2854(6) 0.1270 Uani
loop_
_atom_site_aniso_label
_atom_site_aniso_U_11
_atom_site_aniso_U_22
_atom_site_aniso_U_33
_atom_site_aniso_U_23
_atom_site_aniso_U_13
_atom_site_aniso_U_12
Cu1 0.1064(12) 0.1023(13) 0.1000(11) 0.0018(11) -0.0012(9) 0.0011(10)
Cu2 0.1021(13) 0.1118(13) 0.0988(12) 0.0015(10) 0.0016(11) -0.0020(10)
N1 0.140(12) 0.108(10) 0.111(10) 0.013(8) 0.024(9) 0.039(9)
N2 0.109(10) 0.101(9) 0.122(11) 0.005(8) 0.000(8) -0.003(8)
C1 0.125(13) 0.117(13) 0.145(14) 0.020(11) -0.015(11) -0.003(11)
C2 0.107(12) 0.141(15) 0.076(9) -0.007(9) -0.005(8) 0.004(11)
C3 0.127(14) 0.107(13) 0.128(14) -0.012(11) 0.012(11) -0.018(11)
C4 0.18(2) 0.088(11) 0.127(14) -0.006(10) -0.059(14) -0.001(12)
C5 0.126(13) 0.111(11) 0.132(13) -0.024(10) -0.041(10) -0.006(10)
N3 0.100(9) 0.086(9) 0.162(13) 0.000(9) 0.018(8) 0.016(7)
N4 0.134(12) 0.125(12) 0.122(11) -0.010(9) 0.019(9) -0.009(9)
C6 0.138(14) 0.119(13) 0.130(14) 0.001(11) -0.024(11) 0.012(11)
C7 0.110(11) 0.098(11) 0.096(10) -0.009(9) 0.005(9) 0.016(9)
C8 0.119(12) 0.106(12) 0.116(13) -0.006(10) -0.011(11) -0.002(11)
C9 0.095(12) 0.110(13) 0.146(16) 0.005(12) -0.038(11) 0.001(9)
C10 0.146(15) 0.119(12) 0.113(12) 0.009(11) -0.014(10) 0.000(11)
Cu1E 0.1 0.1064 0.1023 0.0011 -0.0018 0.0012
Cu2D 0.0988 0.1021 0.1118 -0.002 0.0015 0.0016
N2K 0.101 0.122 0.109 0 0.003 0.005
N4H 0.125 0.122 0.134 0.019 -0.009 -0.01
loop_
_geom_bond_atom_site_label_1
_geom_bond_atom_site_label_2
_geom_bond_site_symmetry_1
_geom_bond_site_symmetry_2
Cu1 N1 1_555 1_555
Cu2 N3 1_555 1_555
N1 N2 1_555 1_555
N2 C4 1_555 1_555
C1 H1 1_555 1_555
H2 C1 1_555 1_555
H3 C1 1_555 1_555
C2 N1 1_555 1_555
C3 C2 1_555 1_555
C4 C3 1_555 1_555
C5 C4 1_555 1_555
H4 C5 1_555 1_555
H5 C5 1_555 1_555
H6 C5 1_555 1_555
N3 N4 1_555 1_555
N4 C9 1_555 1_555
C6 H7 1_555 1_555
H8 C6 1_555 1_555
H9 C6 1_555 1_555
C7 N3 1_555 1_555
C8 C3 1_555 1_555
C9 C8 1_555 1_555
C10 C9 1_555 1_555
H10 C10 1_555 1_555
H11 C10 1_555 1_555
H12 C10 1_555 1_555
Cu1E N2 1_555 1_555
Cu2D N4 1_555 1_555
N2K Cu1 1_555 1_555
N4H Cu2 1_555 1_555
C1 C2 1_555 1_555
C6 C7 1_555 1_555
C7 C8 1_555 1_555

#END
