
#######################################################################
#
#                 Cambridge Crystallographic Data Centre
#                                CCDC 
#
#######################################################################
#
# If this CIF has been generated from an entry in the Cambridge 
# Structural Database, then it will include bibliographic, chemical, 
# crystal, experimental, refinement or atomic coordinate data resulting 
# from the CCDC's data processing and validation procedures.
#
#######################################################################

data_BADXAI
_chemical_formula_moiety         'C36 H36 N4 O30 Tb8'
_symmetry_cell_setting           rhombohedral
_symmetry_space_group_name_H-M   'R -3'
_symmetry_Int_Tables_number      148
_space_group_name_Hall           '-R 3'
loop_
_symmetry_equiv_pos_site_id
_symmetry_equiv_pos_as_xyz
1 x,y,z
2 -y,x-y,z
3 -x+y,-x,z
4 2/3+x,1/3+y,1/3+z
5 2/3-y,1/3+x-y,1/3+z
6 2/3-x+y,1/3-x,1/3+z
7 1/3+x,2/3+y,2/3+z
8 1/3-y,2/3+x-y,2/3+z
9 1/3-x+y,2/3-x,2/3+z
10 -x,-y,-z
11 y,-x+y,-z
12 x-y,x,-z
13 1/3-x,2/3-y,2/3-z
14 1/3+y,2/3-x+y,2/3-z
15 1/3+x-y,2/3+x,2/3-z
16 2/3-x,1/3-y,1/3-z
17 2/3+y,1/3-x+y,1/3-z
18 2/3+x-y,1/3+x,1/3-z
_cell_length_a                   31.1292(19)
_cell_length_b                   31.1292(19)
_cell_length_c                   12.0520(6)
_cell_angle_alpha                90
_cell_angle_beta                 90
_cell_angle_gamma                120
_cell_volume                     10114.1
loop_
_atom_site_label
_atom_site_type_symbol
_atom_site_fract_x
_atom_site_fract_y
_atom_site_fract_z
Tb1 Tb 0.33288(2) -0.00669(2) 0.70039(5)
O1 O 0.3380(3) 0.0477(3) 0.5429(6)
O2 O 0.2782(3) 0.0286(3) 0.6631(7)
O3 O 0.4197(3) 0.0339(3) 0.6501(6)
O4 O 0.3737(3) -0.0182(3) 0.5185(6)
O5 O 0.3363(4) -0.0822(4) 0.7189(8)
O6 O 0.2658(3) -0.0701(5) 0.5990(7)
O7 O 0.3708(4) 0.0760(3) 0.7736(7)
C1 C 0.3062(5) 0.0568(4) 0.5868(9)
C2 C 0.4163(5) 0.0083(5) 0.5671(9)
H1 H 0.3129 -0.1023 0.7608
H2 H 0.3332 -0.0951 0.6552
C3 C 0.3047(5) 0.1027(4) 0.5556(9)
C4 C 0.4591(4) 0.0047(5) 0.5293(9)
C5 C 0.3424(6) 0.1374(5) 0.4895(10)
C6 C 0.2698(5) 0.1126(5) 0.6005(13)
C7 C 0.5072(5) 0.0412(5) 0.5597(10)
C8 C 0.4525(6) -0.0363(6) 0.4689(13)
H3 H 0.3670 0.1307 0.4617
C9 C 0.3445(6) 0.1810(5) 0.4638(11)
C10 C 0.2715(10) 0.1581(11) 0.575(3)
H4 H 0.2447 0.0891 0.6480
H5 H 0.5122 0.0695 0.6003
N1 N 0.4065(9) -0.0762(8) 0.441(3)
H6 H 0.3700 0.2039 0.4162
C11 C 0.3092(5) 0.1927(5) 0.5070(9)
N2 N 0.2358(11) 0.1690(10) 0.621(2)
H7 H 0.3818 -0.0706 0.4530
C12 C 0.3918(9) -0.1221(9) 0.400(3)
C13 C 0.3129(5) 0.2412(5) 0.4879(10)
H8 H 0.2447 0.2003 0.6326
C14 C 0.1881(10) 0.1330(10) 0.649(2)
C15 C 0.3353(9) -0.1587(9) 0.415(3)
O8 O 0.4201(11) -0.1360(13) 0.366(3)
O9 O 0.1869(12) 0.1033(10) 0.721(3)
C16 C 0.1717(13) 0.1713(12) 0.687(3)
H9 H 0.3162 -0.1579 0.3485
C17 C 0.3311(15) -0.2095(9) 0.427(4)
O10 O 0.3176(10) -0.1464(10) 0.517(2)
O11 O 0.2086(12) 0.2037(11) 0.767(3)
H10 H 0.1438 0.1499 0.7387
C18 C 0.1429(14) 0.1756(15) 0.591(3)
H11 H 0.3522 -0.2090 0.4862
H12 H 0.2975 -0.2346 0.4424
H13 H 0.3416 -0.2167 0.3585
H14 H 0.3026 -0.1311 0.5007
H15 H 0.2262 0.1915 0.7857
H16 H 0.1094 0.1466 0.5901
H17 H 0.1598 0.1771 0.5214
H18 H 0.1407 0.2058 0.5994
O1E O 0.3764(4) -0.0047(3) 0.8762(6)
O4E O 0.2748(4) -0.0404(3) 0.8518(6)
Tb1G Tb 0.34002(2) 0.00624(3) 0.36706(5)
C8I C 0.5475(6) 0.0363(6) 0.5311(13)
C7I C 0.4928(5) -0.0412(5) 0.4403(10)
N1I N 0.5935(9) 0.0762(8) 0.559(3)
C4I C 0.5409(4) -0.0047(5) 0.4707(9)
H5I H 0.4878 -0.0695 0.3997
H7I H 0.6182 0.0706 0.5470
C12I C 0.6082(9) 0.1221(9) 0.600(3)
C2I C 0.5837(5) -0.0083(5) 0.4329(9)
O6K O 0.3359(6) 0.2658(3) 0.4010(7)
O7O O 0.2959(4) 0.2573(3) 0.5597(7)
C15I C 0.6647(9) 0.1587(9) 0.585(3)
O8I O 0.5799(11) 0.1360(13) 0.634(3)
O3I O 0.5803(3) -0.0339(3) 0.3499(6)
O4I O 0.6263(3) 0.0182(3) 0.4815(6)
Tb1K Tb 0.33957(3) 0.33288(2) 0.29961(5)
Tb1O Tb 0.33379(2) 0.34002(2) 0.63294(5)
H9I H 0.6838 0.1579 0.6515
C17I C 0.6689(15) 0.2095(9) 0.573(4)
O10I O 0.6824(10) 0.1464(10) 0.483(2)
Tb1I Tb 0.66712(2) 0.00669(2) 0.29961(5)
Tb1P Tb 0.65998(2) -0.00624(3) 0.63294(5)
O1N O 0.6236(4) 0.0047(3) 0.1238(6)
H11I H 0.6478 0.2090 0.5138
H12I H 0.7025 0.2346 0.5576
H13I H 0.6584 0.2167 0.6415
H14I H 0.6974 0.1311 0.4993
O1I O 0.6620(3) -0.0477(3) 0.4571(6)
O2I O 0.7218(3) -0.0286(3) 0.3369(7)
O5I O 0.6637(4) 0.0822(4) 0.2811(8)
O6I O 0.7342(3) 0.0701(5) 0.4010(7)
O7I O 0.6292(4) -0.0760(3) 0.2264(7)
O4N O 0.7252(4) 0.0404(3) 0.1482(6)
C1I C 0.6938(5) -0.0568(4) 0.4132(9)
H1I H 0.6871 0.1023 0.2392
H2I H 0.6668 0.0951 0.3448
C3I C 0.6953(5) -0.1027(4) 0.4444(9)
C5I C 0.6576(6) -0.1374(5) 0.5105(10)
C6I C 0.7302(5) -0.1126(5) 0.3995(13)
H3I H 0.6330 -0.1307 0.5383
C9I C 0.6555(6) -0.1810(5) 0.5362(11)
C10I C 0.7285(10) -0.1581(11) 0.425(3)
H4I H 0.7553 -0.0891 0.3520
H6I H 0.6300 -0.2039 0.5838
C11I C 0.6908(5) -0.1927(5) 0.4930(9)
N2I N 0.7642(11) -0.1690(10) 0.379(2)
C13I C 0.6871(5) -0.2412(5) 0.5121(10)
H8I H 0.7553 -0.2003 0.3674
C14I C 0.8119(10) -0.1330(10) 0.351(2)
O6B O 0.6641(6) -0.2658(3) 0.5990(7)
O7F O 0.7041(4) -0.2573(3) 0.4403(7)
O9I O 0.8131(12) -0.1033(10) 0.279(3)
C16I C 0.8283(13) -0.1713(12) 0.313(3)
Tb1B Tb 0.66043(3) -0.33288(2) 0.70039(5)
Tb1F Tb 0.66621(2) -0.34002(2) 0.36706(5)
O11I O 0.7914(12) -0.2037(11) 0.233(3)
H10I H 0.8562 -0.1499 0.2613
C18I C 0.8571(14) -0.1756(15) 0.409(3)
H15I H 0.7738 -0.1915 0.2143
H16I H 0.8906 -0.1466 0.4099
H17I H 0.8402 -0.1771 0.4786
H18I H 0.8593 -0.2058 0.4006
loop_
_geom_bond_atom_site_label_1
_geom_bond_atom_site_label_2
_geom_bond_site_symmetry_1
_geom_bond_site_symmetry_2
Tb1 O1 1_555 1_555
O1 C1 1_555 1_555
O2 Tb1 1_555 1_555
O3 Tb1 1_555 1_555
O4 Tb1 1_555 1_555
O5 Tb1 1_555 1_555
O6 Tb1 1_555 1_555
O7 Tb1 1_555 1_555
C1 O2 1_555 1_555
C2 O3 1_555 1_555
H1 O5 1_555 1_555
H2 O5 1_555 1_555
C3 C1 1_555 1_555
C4 C2 1_555 1_555
C5 C3 1_555 1_555
C6 C3 1_555 1_555
C7 C4 1_555 1_555
C8 C4 1_555 1_555
H3 C5 1_555 1_555
C9 C5 1_555 1_555
C10 C6 1_555 1_555
H4 C6 1_555 1_555
H5 C7 1_555 1_555
N1 C8 1_555 1_555
H6 C9 1_555 1_555
C11 C9 1_555 1_555
N2 C10 1_555 1_555
H7 N1 1_555 1_555
C12 N1 1_555 1_555
C13 C11 1_555 1_555
H8 N2 1_555 1_555
C14 N2 1_555 1_555
C15 C12 1_555 1_555
O8 C12 1_555 1_555
O9 C14 1_555 1_555
C16 C14 1_555 1_555
H9 C15 1_555 1_555
C17 C15 1_555 1_555
O10 C15 1_555 1_555
O11 C16 1_555 1_555
H10 C16 1_555 1_555
C18 C16 1_555 1_555
H11 C17 1_555 1_555
H12 C17 1_555 1_555
H13 C17 1_555 1_555
H14 O10 1_555 1_555
H15 O11 1_555 1_555
H16 C18 1_555 1_555
H17 C18 1_555 1_555
H18 C18 1_555 1_555
O1E Tb1 1_555 1_555
O4E Tb1 1_555 1_555
Tb1G O1 1_555 1_555
C8I C7 1_555 1_555
C7I C8 1_555 1_555
N1I C8I 1_555 1_555
C4I C8I 1_555 1_555
H5I C7I 1_555 1_555
H7I N1I 1_555 1_555
C12I N1I 1_555 1_555
C2I C4I 1_555 1_555
O6K C13 1_555 1_555
O7O C13 1_555 1_555
C15I C12I 1_555 1_555
O8I C12I 1_555 1_555
O3I C2I 1_555 1_555
O4I C2I 1_555 1_555
Tb1K O6K 1_555 1_555
Tb1O O7O 1_555 1_555
H9I C15I 1_555 1_555
C17I C15I 1_555 1_555
O10I C15I 1_555 1_555
Tb1I O3I 1_555 1_555
Tb1P O4I 1_555 1_555
O1N Tb1I 1_555 1_555
H11I C17I 1_555 1_555
H12I C17I 1_555 1_555
H13I C17I 1_555 1_555
H14I O10I 1_555 1_555
O1I Tb1I 1_555 1_555
O2I Tb1I 1_555 1_555
O5I Tb1I 1_555 1_555
O6I Tb1I 1_555 1_555
O7I Tb1I 1_555 1_555
O4N Tb1I 1_555 1_555
C1I O1I 1_555 1_555
H1I O5I 1_555 1_555
H2I O5I 1_555 1_555
C3I C1I 1_555 1_555
C5I C3I 1_555 1_555
C6I C3I 1_555 1_555
H3I C5I 1_555 1_555
C9I C5I 1_555 1_555
C10I C6I 1_555 1_555
H4I C6I 1_555 1_555
H6I C9I 1_555 1_555
C11I C9I 1_555 1_555
N2I C10I 1_555 1_555
C13I C11I 1_555 1_555
H8I N2I 1_555 1_555
C14I N2I 1_555 1_555
O6B C13I 1_555 1_555
O7F C13I 1_555 1_555
O9I C14I 1_555 1_555
C16I C14I 1_555 1_555
Tb1B O6B 1_555 1_555
Tb1F O7F 1_555 1_555
O11I C16I 1_555 1_555
H10I C16I 1_555 1_555
C18I C16I 1_555 1_555
H15I O11I 1_555 1_555
H16I C18I 1_555 1_555
H17I C18I 1_555 1_555
H18I C18I 1_555 1_555
O4 C2 1_555 1_555
O4 Tb1G 1_555 1_555
C10 C11 1_555 1_555
C7I C4I 1_555 1_555
O4I Tb1I 1_555 1_555
Tb1P O1I 1_555 1_555
O2I C1I 1_555 1_555
C10I C11I 1_555 1_555

#END
