
#######################################################################
#
#                 Cambridge Crystallographic Data Centre
#                                CCDC 
#
#######################################################################
#
# If this CIF has been generated from an entry in the Cambridge 
# Structural Database, then it will include bibliographic, chemical, 
# crystal, experimental, refinement or atomic coordinate data resulting 
# from the CCDC's data processing and validation procedures.
#
#######################################################################

data_QAYTEP
_chemical_formula_moiety         '(C31 H61 Cl3 N12 Nd2 O24)n'
_symmetry_cell_setting           rhombohedral
_symmetry_space_group_name_H-M   'R -3'
_symmetry_Int_Tables_number      148
_space_group_name_Hall           '-R 3'
loop_
_symmetry_equiv_pos_site_id
_symmetry_equiv_pos_as_xyz
1 x,y,z
2 -y,x-y,z
3 -x+y,-x,z
4 2/3+x,1/3+y,1/3+z
5 2/3-y,1/3+x-y,1/3+z
6 2/3-x+y,1/3-x,1/3+z
7 1/3+x,2/3+y,2/3+z
8 2/3+y,1/3-x+y,1/3-z
9 2/3+x-y,1/3+x,1/3-z
10 -x,-y,-z
11 y,-x+y,-z
12 x-y,x,-z
13 1/3-x,2/3-y,2/3-z
14 1/3+y,2/3-x+y,2/3-z
15 1/3+x-y,2/3+x,2/3-z
16 2/3-x,1/3-y,1/3-z
17 1/3-y,2/3+x-y,2/3+z
18 1/3-x+y,2/3-x,2/3+z
_cell_length_a                   13.9921(10)
_cell_length_b                   13.9921(10)
_cell_length_c                   25.705(2)
_cell_angle_alpha                90
_cell_angle_beta                 90
_cell_angle_gamma                120.00
_cell_volume                     4358.27
loop_
_atom_site_label
_atom_site_type_symbol
_atom_site_fract_x
_atom_site_fract_y
_atom_site_fract_z
Nd1 Nd 0.0000 0.0000 0.5000
O1 O 0.1500(2) 0.1201(3) 0.44972(12)
C1 C 0.2493(4) 0.1816(4) 0.4370(2)
C2 C 0.3255(4) 0.2733(5) 0.4719(2)
H1 H 0.3835(4) 0.3304(5) 0.4516(2)
H2 H 0.3568(4) 0.2458(5) 0.4970(2)
H3 H 0.2854(4) 0.3025(5) 0.4896(2)
N1 N 0.2880(3) 0.1683(3) 0.3934(2)
H4 H 0.3595(9) 0.2100(27) 0.3845(15)
C3 C 0.2228(4) 0.0796(4) 0.3563(2)
H5 H 0.2498(4) 0.1050(4) 0.3214(2)
H6 H 0.1464(4) 0.0619(4) 0.3578(2)
C4 C 0.2291(4) -0.0237(4) 0.3677(2)
H7 H 0.3059(4) -0.0050(4) 0.3683(2)
H8 H 0.1981(4) -0.0515(4) 0.4018(2)
C5 C 0.1680(4) -0.1127(4) 0.3279(2)
H9 H 0.2020(4) -0.0855(4) 0.2942(2)
H10 H 0.0927(4) -0.1272(4) 0.3258(2)
O1A O -0.1201(3) 0.0299(4) 0.44972(12)
O1B O -0.0299(4) -0.1500(2) 0.44972(12)
O1I O -0.1500(2) -0.1201(3) 0.55028(12)
O1J O 0.1201(3) -0.0299(4) 0.55028(12)
O1K O 0.0299(4) 0.1500(2) 0.55028(12)
C5L C 0.1653(4) -0.2206(4) 0.3388(2)
C1B C -0.0677(6) -0.2493(4) 0.4370(2)
C1I C -0.2493(4) -0.1816(4) 0.5630(2)
C4L C 0.1042(4) -0.3096(4) 0.2990(2)
H9L H 0.1313(4) -0.2478(4) 0.3725(2)
H10L H 0.2406(4) -0.2061(4) 0.3409(2)
C2B C -0.0522(6) -0.3255(4) 0.4719(2)
N1B N -0.1197(4) -0.2880(3) 0.3934(2)
C2I C -0.3255(4) -0.2733(5) 0.5281(2)
N1I N -0.2880(3) -0.1683(3) 0.6066(2)
C3L C 0.1105(4) -0.4129(4) 0.3104(2)
H7L H 0.0274(4) -0.3283(4) 0.2984(2)
H8L H 0.1352(4) -0.2818(4) 0.2649(2)
H1B H -0.0531(6) -0.3835(4) 0.4516(2)
H2B H -0.1110(6) -0.3568(4) 0.4970(2)
H3B H 0.0171(6) -0.2854(4) 0.4896(2)
H4B H -0.1495(28) -0.3595(9) 0.3845(15)
C3B C -0.1432(6) -0.2228(4) 0.3563(2)
H1I H -0.3835(4) -0.3304(5) 0.5484(2)
H2I H -0.3568(4) -0.2458(5) 0.5030(2)
H3I H -0.2854(4) -0.3025(5) 0.5104(2)
H4I H -0.3595(9) -0.2100(27) 0.6155(15)
C3I C -0.2228(4) -0.0796(4) 0.6437(2)
N1L N 0.0453(3) -0.5016(3) 0.2733(2)
H5L H 0.0835(4) -0.4383(4) 0.3453(2)
H6L H 0.1869(4) -0.3952(4) 0.3089(2)
H5B H -0.1448(6) -0.2498(4) 0.3214(2)
H6B H -0.0845(6) -0.1464(4) 0.3578(2)
C4B C -0.2528(6) -0.2291(4) 0.3677(2)
H5I H -0.2498(4) -0.1050(4) 0.6786(2)
H6I H -0.1464(4) -0.0619(4) 0.6422(2)
C4I C -0.2291(4) 0.0237(4) 0.6323(2)
C1L C 0.0840(4) -0.5149(4) 0.2297(2)
H4L H -0.0262(9) -0.5433(27) 0.2822(15)
H7B H -0.3109(6) -0.3059(4) 0.3683(2)
H8B H -0.2496(6) -0.1981(4) 0.4018(2)
C5B C -0.2807(6) -0.1680(4) 0.3279(2)
H7I H -0.3059(4) 0.0050(4) 0.6317(2)
H8I H -0.1981(4) 0.0515(4) 0.5982(2)
C5I C -0.1680(4) 0.1127(4) 0.6721(2)
O1L O 0.1833(2) -0.4534(3) 0.21695(12)
C2L C 0.0078(4) -0.6066(5) 0.1948(2)
Nd1F Nd 0.3333 -0.3333 0.1667
C5N C -0.3860(6) -0.1653(4) 0.3388(2)
H9B H -0.2875(6) -0.2020(4) 0.2942(2)
H10B H -0.2199(6) -0.0927(4) 0.3258(2)
C4N C -0.4139(6) -0.1042(4) 0.2990(2)
H9N H -0.3792(6) -0.1313(4) 0.3725(2)
H10N H -0.4468(6) -0.2406(4) 0.3409(2)
C3N C -0.5235(6) -0.1105(4) 0.3104(2)
H7N H -0.3558(6) -0.0274(4) 0.2984(2)
H8N H -0.4171(6) -0.1352(4) 0.2649(2)
N1N N -0.5470(4) -0.0453(3) 0.2733(2)
H5N H -0.5219(6) -0.0835(4) 0.3453(2)
H6N H -0.5822(6) -0.1869(4) 0.3089(2)
C1N C -0.5990(6) -0.0840(4) 0.2297(2)
H4N H -0.5172(28) 0.0262(9) 0.2822(15)
O1N O -0.6368(4) -0.1833(2) 0.21695(12)
C2N C -0.6145(6) -0.0078(4) 0.1948(2)
Nd1F_2 Nd -0.6667 -0.3333 0.1667
C5C C -0.1653(4) 0.2206(4) 0.6612(2)
H9I H -0.2020(4) 0.0855(4) 0.7058(2)
H10I H -0.0927(4) 0.1272(4) 0.6742(2)
C4C C -0.1042(4) 0.3096(4) 0.7010(2)
H9C H -0.1313(4) 0.2478(4) 0.6275(2)
H10C H -0.2406(4) 0.2061(4) 0.6591(2)
C3C C -0.1105(4) 0.4129(4) 0.6896(2)
H7C H -0.0274(4) 0.3283(4) 0.7016(2)
H8C H -0.1352(4) 0.2818(4) 0.7351(2)
N1C N -0.0453(3) 0.5016(3) 0.7267(2)
H5C H -0.0835(4) 0.4383(4) 0.6547(2)
H6C H -0.1869(4) 0.3952(4) 0.6911(2)
C1C C -0.0840(4) 0.5149(4) 0.7703(2)
H4C H 0.0262(9) 0.5433(27) 0.7178(15)
H1L H -0.0502(4) -0.6637(5) 0.2151(2)
H2L H -0.0235(4) -0.5791(5) 0.1697(2)
H3L H 0.0479(4) -0.6358(5) 0.1771(2)
H1N H -0.6136(6) 0.0502(4) 0.2151(2)
H2N H -0.5557(6) 0.0235(4) 0.1697(2)
H3N H -0.6838(6) -0.0479(4) 0.1771(2)
O1C O -0.1833(2) 0.4534(3) 0.78305(12)
C2C C -0.0078(4) 0.6066(5) 0.8052(2)
Nd1C Nd -0.3333 0.3333 0.8333
H1C H 0.0502(4) 0.6637(5) 0.7849(2)
H2C H 0.0235(4) 0.5791(5) 0.8303(2)
H3C H -0.0479(4) 0.6358(5) 0.8229(2)
Nd2 Nd 0.6667 0.3333 0.3333
N2 N 0.5368(3) 0.1313(3) 0.40182(13)
O2 O 0.5967(2) 0.1319(2) 0.36424(11)
O3 O 0.5371(2) 0.2205(2) 0.41015(11)
O4 O 0.4824(3) 0.0490(3) 0.42791(13)
O2A O 0.8681(2) 0.4648(3) 0.36424(11)
O2B O 0.5352(3) 0.4033(2) 0.36424(11)
O2L O 0.7366(2) 0.5348(2) 0.30243(11)
O2M O 0.4652(2) 0.2019(3) 0.30243(11)
O2N O 0.7981(3) 0.2634(2) 0.30243(11)
O3A O 0.7795(2) 0.3166(3) 0.41015(11)
O3B O 0.6834(3) 0.4629(2) 0.41015(11)
O3L O 0.7962(2) 0.4462(2) 0.25652(11)
O3M O 0.5538(2) 0.3501(3) 0.25652(11)
O3N O 0.6499(3) 0.2038(2) 0.25652(11)
N2A N 0.8687(3) 0.4055(4) 0.40182(13)
N2B N 0.5945(4) 0.4632(3) 0.40182(13)
N2L N 0.7965(3) 0.5354(3) 0.26485(13)
N2M N 0.4646(3) 0.2612(4) 0.26485(13)
N2N N 0.7388(4) 0.2035(3) 0.26485(13)
O4A O 0.9510(3) 0.4334(4) 0.42791(13)
O4B O 0.5666(4) 0.5176(3) 0.42791(13)
O4L O 0.8509(3) 0.6177(3) 0.23876(13)
O4M O 0.3823(3) 0.2333(4) 0.23876(13)
O4N O 0.7667(4) 0.1491(3) 0.23876(13)
C6 C 0.6667 0.3333 0.5249(3)
H11 H 0.6667 0.3333 0.4868(3)
Cl1 Cl 0.60449(15) 0.19623(12) 0.54636(6)
Cl1A Cl 0.80377(12) 0.40826(19) 0.54636(6)
Cl1B Cl 0.59174(19) 0.39551(15) 0.54636(6)
loop_
_geom_bond_atom_site_label_1
_geom_bond_atom_site_label_2
_geom_bond_site_symmetry_1
_geom_bond_site_symmetry_2
Nd1 O1 1_555 1_555
O1 C1 1_555 1_555
C1 C2 1_555 1_555
C2 H1 1_555 1_555
H2 C2 1_555 1_555
H3 C2 1_555 1_555
N1 C1 1_555 1_555
H4 N1 1_555 1_555
C3 N1 1_555 1_555
H5 C3 1_555 1_555
H6 C3 1_555 1_555
C4 C3 1_555 1_555
H7 C4 1_555 1_555
H8 C4 1_555 1_555
C5 C4 1_555 1_555
H9 C5 1_555 1_555
H10 C5 1_555 1_555
Nd2 O2 1_555 1_555
N2 O2 1_555 1_555
O3 Nd2 1_555 1_555
O4 N2 1_555 1_555
C6 H11 1_555 1_555
Cl1 C6 1_555 1_555
O1A Nd1 1_555 1_555
O1B Nd1 1_555 1_555
O1I Nd1 1_555 1_555
O1J Nd1 1_555 1_555
O1K Nd1 1_555 1_555
C5L C5 1_555 1_555
O2A Nd2 1_555 1_555
O2B Nd2 1_555 1_555
O2L Nd2 1_555 1_555
O2M Nd2 1_555 1_555
O2N Nd2 1_555 1_555
O3A Nd2 1_555 1_555
O3B Nd2 1_555 1_555
O3L Nd2 1_555 1_555
O3M Nd2 1_555 1_555
O3N Nd2 1_555 1_555
Cl1A C6 1_555 1_555
Cl1B C6 1_555 1_555
C1B O1B 1_555 1_555
C1I O1I 1_555 1_555
C4L C5L 1_555 1_555
H9L C5L 1_555 1_555
H10L C5L 1_555 1_555
N2A O2A 1_555 1_555
N2B O2B 1_555 1_555
N2L O2L 1_555 1_555
N2M O2M 1_555 1_555
N2N O2N 1_555 1_555
C2B C1B 1_555 1_555
N1B C1B 1_555 1_555
C2I C1I 1_555 1_555
N1I C1I 1_555 1_555
C3L C4L 1_555 1_555
H7L C4L 1_555 1_555
H8L C4L 1_555 1_555
O4A N2A 1_555 1_555
O4B N2B 1_555 1_555
O4L N2L 1_555 1_555
O4M N2M 1_555 1_555
O4N N2N 1_555 1_555
H1B C2B 1_555 1_555
H2B C2B 1_555 1_555
H3B C2B 1_555 1_555
H4B N1B 1_555 1_555
C3B N1B 1_555 1_555
H1I C2I 1_555 1_555
H2I C2I 1_555 1_555
H3I C2I 1_555 1_555
H4I N1I 1_555 1_555
C3I N1I 1_555 1_555
N1L C3L 1_555 1_555
H5L C3L 1_555 1_555
H6L C3L 1_555 1_555
H5B C3B 1_555 1_555
H6B C3B 1_555 1_555
C4B C3B 1_555 1_555
H5I C3I 1_555 1_555
H6I C3I 1_555 1_555
C4I C3I 1_555 1_555
C1L N1L 1_555 1_555
H4L N1L 1_555 1_555
H7B C4B 1_555 1_555
H8B C4B 1_555 1_555
C5B C4B 1_555 1_555
H7I C4I 1_555 1_555
H8I C4I 1_555 1_555
C5I C4I 1_555 1_555
O1L C1L 1_555 1_555
C2L C1L 1_555 1_555
Nd1F O1L 1_555 1_555
C5N C5B 1_555 1_555
H9B C5B 1_555 1_555
H10B C5B 1_555 1_555
C4N C5N 1_555 1_555
H9N C5N 1_555 1_555
H10N C5N 1_555 1_555
C3N C4N 1_555 1_555
H7N C4N 1_555 1_555
H8N C4N 1_555 1_555
N1N C3N 1_555 1_555
H5N C3N 1_555 1_555
H6N C3N 1_555 1_555
C1N N1N 1_555 1_555
H4N N1N 1_555 1_555
O1N C1N 1_555 1_555
C2N C1N 1_555 1_555
Nd1F_2 O1N 1_555 1_555
C5C C5I 1_555 1_555
H9I C5I 1_555 1_555
H10I C5I 1_555 1_555
C4C C5C 1_555 1_555
H9C C5C 1_555 1_555
H10C C5C 1_555 1_555
C3C C4C 1_555 1_555
H7C C4C 1_555 1_555
H8C C4C 1_555 1_555
N1C C3C 1_555 1_555
H5C C3C 1_555 1_555
H6C C3C 1_555 1_555
C1C N1C 1_555 1_555
H4C N1C 1_555 1_555
H1L C2L 1_555 1_555
H2L C2L 1_555 1_555
H3L C2L 1_555 1_555
H1N C2N 1_555 1_555
H2N C2N 1_555 1_555
H3N C2N 1_555 1_555
O1C C1C 1_555 1_555
C2C C1C 1_555 1_555
Nd1C O1C 1_555 1_555
H1C C2C 1_555 1_555
H2C C2C 1_555 1_555
H3C C2C 1_555 1_555
N2 O3 1_555 1_555
O3A N2A 1_555 1_555
O3B N2B 1_555 1_555
O3L N2L 1_555 1_555
O3M N2M 1_555 1_555
O3N N2N 1_555 1_555

#END
