
#######################################################################
#
#                 Cambridge Crystallographic Data Centre
#                                CCDC 
#
#######################################################################
#
# If this CIF has been generated from an entry in the Cambridge 
# Structural Database, then it will include bibliographic, chemical, 
# crystal, experimental, refinement or atomic coordinate data resulting 
# from the CCDC's data processing and validation procedures.
#
#######################################################################

data_LAXCUK
_chemical_formula_moiety         'C160 H18 Cu3 N12 O28 Zn4'
_symmetry_cell_setting           monoclinic
_symmetry_space_group_name_H-M   'P 21/c'
_symmetry_Int_Tables_number      14
_space_group_name_Hall           '-P 2ybc'
loop_
_symmetry_equiv_pos_site_id
_symmetry_equiv_pos_as_xyz
1 x,y,z
2 -x,1/2+y,1/2-z
3 -x,-y,-z
4 x,1/2-y,1/2+z
_cell_length_a                   19.650
_cell_length_b                   37.980
_cell_length_c                   28.820
_cell_angle_alpha                90
_cell_angle_beta                 94.57
_cell_angle_gamma                90
_cell_volume                     21440.2
loop_
_atom_site_label
_atom_site_type_symbol
_atom_site_fract_x
_atom_site_fract_y
_atom_site_fract_z
_atom_site_U_iso_or_equiv
_atom_site_thermal_displace_type
O14 O 0.234(17) 0.770(9) 0.976(11) 0.4500 Uiso
O17 O 0.442(15) 0.723(8) 0.944(9) 0.3800 Uiso
C162 C 0.410(9) 0.757(5) 0.951(6) 0.1500 Uiso
O18 O 0.18(3) 0.826(13) 0.947(19) 0.6000 Uiso
O19 O 0.271(16) 0.051(8) 0.869(10) 0.4300 Uiso
O20 O 0.03(3) 0.704(15) 0.030(18) 0.6000 Uiso
O21 O 0.280(18) 0.085(10) 0.776(11) 0.4600 Uiso
O27 O 0.31(4) 0.81(2) 0.94(2) 0.8000 Uiso
O28 O 0.38(6) 0.64(3) 0.87(4) 0.7000 Uiso
Zn2 Zn 0.7558(7) 0.7827(4) 0.5683(5) 0.0947 Uani
Zn4 Zn -0.2118(8) 0.7564(4) 0.9763(6) 0.1186 Uani
Cu1 Cu 1.1292(12) 0.5486(6) 0.7225(9) 0.1883 Uani
Cu2 Cu -0.5214(13) 0.9170(5) 0.6738(9) 0.1893 Uani
Cu3 Cu 0.1700(8) 0.7308(5) 0.6786(6) 0.1328 Uani
C1 C 0.3055(7) 0.7580(4) 0.8347(5) 0.2800 Uiso
C2 C 0.2294(7) 0.7445(4) 0.7684(5) 0.1500 Uiso
C3 C 0.2391(7) 0.7482(4) 0.8164(5) 0.1400 Uiso
C4 C 0.1849(7) 0.7428(4) 0.8438(5) 0.1700 Uiso
C5 C 0.1209(7) 0.7339(4) 0.8231(5) 0.1400 Uiso
C6 C 0.1112(7) 0.7303(4) 0.7750(5) 0.1400 Uiso
N1 N 0.1654(7) 0.7356(4) 0.7476(5) 0.1600 Uiso
C7 C 0.3374(7) 0.7686(4) 0.7689(5) 0.2800 Uiso
C8 C 0.2812(7) 0.7546(4) 0.7424(5) 0.1500 Uiso
C9 C 0.3366(7) 0.7685(4) 0.8195(5) 0.0800 Uiso
N2 N 1.0776(7) 0.5079(4) 0.7482(5) 0.1900 Uiso
N3 N 1.0320(7) 0.5622(4) 0.7029(5) 0.1600 Uiso
C10 C 0.8840(7) 0.5815(4) 0.6990(5) 0.5000 Uiso
C11 C 0.9470(7) 0.6005(4) 0.6699(5) 0.2400 Uiso
C12 C 1.0156(7) 0.5888(4) 0.6784(5) 0.2100 Uiso
C13 C 1.0945(7) 0.4809(4) 0.7798(5) 0.2300 Uiso
C14 C 1.0588(7) 0.4618(4) 0.8093(5) 0.2300 Uiso
C15 C 1.0677(7) 0.6113(4) 0.6552(5) 0.2300 Uiso
C16 C 0.9858(7) 0.4750(4) 0.8208(5) 2.0000 Uiso
C17 C 0.9784(7) 0.5380(4) 0.7234(5) 0.2600 Uiso
C18 C 0.9177(7) 0.5543(4) 0.7285(5) 0.2800 Uiso
C19 C 0.8764(7) 0.5352(4) 0.7651(5) 0.5000 Uiso
C20 C 1.0058(7) 0.5107(4) 0.7490(5) 0.2700 Uiso
C21 C 0.9700(7) 0.4953(4) 0.7834(5) 1.2000 Uiso
C22 C 0.8938(7) 0.5113(4) 0.7786(5) 0.4000 Uiso
C23 C -0.5613(7) 0.9986(4) 0.6626(5) 0.1600 Uiso
C24 C -0.5718(7) 1.0277(4) 0.6872(5) 0.1500 Uiso
C25 C -0.5645(7) 1.0279(4) 0.7312(5) 0.1400 Uiso
C26 C -0.5349(7) 1.0073(4) 0.8124(5) 0.2100 Uiso
C27 C -0.5375(7) 0.9711(4) 0.7315(5) 0.1600 Uiso
C28 C -0.5080(7) 0.9747(4) 0.8389(5) 0.1900 Uiso
C29 C -0.0422(7) 0.7191(4) 0.9094(5) 0.1300 Uiso
C30 C -0.0215(7) 0.7525(4) 0.8965(5) 0.2200 Uiso
C31 C -0.3301(7) 0.7670(4) 0.9136(5) 0.1900 Uiso
C32 C 0.0374(7) 0.7552(4) 0.8673(5) 0.2000 Uiso
C33 C 0.0718(7) 0.7256(4) 0.8531(5) 0.1500 Uiso
C34 C 0.0512(7) 0.6922(4) 0.8660(5) 0.2000 Uiso
C35 C -0.0039(7) 0.6884(4) 0.8930(5) 0.1900 Uiso
C36 C 0.6037(7) 0.7870(4) 0.5674(5) 0.1000 Uiso
C37 C 1.1678(7) 0.3420(4) 0.9220(5) 0.1800 Uiso
C38 C 0.8286(7) 0.7165(4) 0.5658(5) 0.1700 Uiso
C39 C -0.1030(7) 0.7163(4) 0.9349(5) 0.1000 Uiso
C40 C -0.6710(7) 1.1442(4) 0.5766(5) 0.1700 Uiso
C41 C -0.6498(7) 1.1123(4) 0.6013(5) 0.1600 Uiso
C42 C -0.5872(7) 1.1160(4) 0.6269(5) 0.2500 Uiso
C43 C -0.5615(7) 1.0886(4) 0.6551(5) 0.3200 Uiso
C44 C -0.5983(7) 1.0575(4) 0.6576(5) 0.1600 Uiso
C45 C -0.6609(7) 1.0538(4) 0.6320(5) 0.5000 Uiso
C46 C -0.6866(7) 1.0812(4) 0.6039(5) 1.2000 Uiso
C47 C 1.1375(7) 0.3736(4) 0.8910(5) 0.1500 Uiso
C48 C 1.1243(7) 0.3692(4) 0.8432(5) 0.2000 Uiso
C49 C 1.1036(7) 0.3978(4) 0.8154(5) 0.2200 Uiso
C50 C 1.0960(7) 0.4307(4) 0.8353(5) 0.1800 Uiso
C51 C 1.1092(7) 0.4351(4) 0.8831(5) 0.2900 Uiso
C52 C 1.1300(7) 0.4066(4) 0.9109(5) 0.3000 Uiso
C53 C 0.8631(7) 0.6884(4) 0.5981(5) 0.1600 Uiso
C54 C 0.8644(7) 0.6873(4) 0.6463(5) 0.2400 Uiso
C55 C 0.8858(7) 0.6569(4) 0.6701(5) 0.2600 Uiso
C56 C 0.9058(7) 0.6277(4) 0.6456(5) 0.2000 Uiso
C57 C 0.9044(7) 0.6288(4) 0.5974(5) 0.2800 Uiso
C58 C 0.8831(7) 0.6592(4) 0.5736(5) 0.2600 Uiso
C59 C 1.2727(7) 0.5546(4) 0.7009(5) 0.2300 Uiso
C60 C 1.2742(7) 0.5617(4) 0.7503(5) 0.2900 Uiso
C61 C 1.2108(7) 0.5672(4) 0.8150(5) 0.5000 Uiso
C62 C 1.2710(7) 0.5701(4) 0.8438(5) 0.5000 Uiso
C63 C 1.3328(7) 0.5712(4) 0.8249(5) 0.3000 Uiso
C64 C 1.3353(7) 0.5667(4) 0.7764(5) 0.4000 Uiso
C65 C 1.3985(7) 0.5682(4) 0.7541(5) 0.2900 Uiso
C66 C 1.3976(7) 0.5642(4) 0.7079(5) 0.3700 Uiso
C67 C 1.3360(7) 0.5571(4) 0.6792(5) 0.5000 Uiso
C68 C 1.3304(7) 0.5528(4) 0.6305(5) 0.3500 Uiso
C69 C 1.2687(7) 0.5457(4) 0.6072(5) 0.3300 Uiso
C70 C 1.2100(7) 0.5429(4) 0.6315(5) 0.2800 Uiso
C71 C -0.4733(7) 0.8907(4) 0.5892(5) 0.2300 Uiso
C72 C -0.5471(7) 0.8934(4) 0.5848(5) 0.2200 Uiso
C73 C -0.6452(7) 0.9064(4) 0.6220(5) 0.3000 Uiso
C74 C -0.5838(7) 0.8842(4) 0.5439(5) 0.3500 Uiso
C75 C -0.6856(7) 0.8953(4) 0.5827(5) 0.3900 Uiso
C76 C -0.6558(7) 0.8855(4) 0.5432(5) 0.3800 Uiso
C77 C -0.5493(7) 0.8748(4) 0.5033(5) 0.3600 Uiso
C78 C -0.4810(7) 0.8744(4) 0.5059(5) 0.3200 Uiso
C79 C -0.3347(7) 0.8898(4) 0.5961(5) 0.2400 Uiso
C80 C -0.3719(7) 0.8971(4) 0.6344(5) 0.3000 Uiso
C81 C -0.3679(7) 0.8826(4) 0.5537(5) 0.2200 Uiso
C82 C -0.4398(7) 0.8821(4) 0.5481(5) 0.2300 Uiso
C83 C 0.5476(7) 0.7826(4) 0.5968(5) 0.1100 Uiso
C84 C 0.4850(7) 0.7966(4) 0.5800(5) 0.1900 Uiso
C85 C 0.4296(7) 0.7950(4) 0.6071(5) 0.2000 Uiso
C86 C 0.4368(7) 0.7795(4) 0.6509(5) 0.1200 Uiso
C87 C 0.4993(7) 0.7656(4) 0.6676(5) 0.2600 Uiso
C88 C 0.5548(7) 0.7671(4) 0.6406(5) 0.2300 Uiso
C89 C -0.3715(7) 0.8055(4) 0.8981(5) 0.3000 Uiso
C90 C -0.4409(7) 0.8023(4) 0.8852(5) 0.2000 Uiso
C91 C -0.4744(7) 0.8282(4) 0.8579(5) 0.2300 Uiso
C92 C -0.4386(7) 0.8572(4) 0.8437(5) 0.2500 Uiso
C93 C -0.3692(7) 0.8604(4) 0.8565(5) 0.3800 Uiso
C94 C -0.3356(7) 0.8345(4) 0.8838(5) 0.4000 Uiso
C95 C -0.4779(7) 0.8506(4) 0.7380(5) 0.2400 Uiso
C96 C -0.4807(7) 0.8773(4) 0.7736(5) 0.1900 Uiso
C97 C -0.4679(7) 0.8839(4) 0.8209(5) 0.2300 Uiso
C98 C -0.4767(7) 0.9176(4) 0.8381(5) 0.2100 Uiso
C99 C -0.4984(7) 0.9447(4) 0.8080(5) 0.1900 Uiso
C100 C -0.5105(7) 0.9381(4) 0.7616(5) 0.1700 Uiso
C101 C 0.3121(7) 0.7575(4) 0.6635(5) 0.1100 Uiso
C102 C 0.3805(7) 0.7663(4) 0.6807(5) 0.1200 Uiso
C103 C 0.4023(7) 0.7682(4) 0.7271(5) 0.1700 Uiso
C104 C 0.0535(7) 0.7145(4) 0.7517(5) 0.1400 Uiso
C105 C 0.2938(7) 0.7525(4) 0.6162(5) 0.1600 Uiso
C106 C 0.0494(7) 0.7757(4) 0.6425(5) 0.1400 Uiso
C107 C -0.0087(7) 0.7850(4) 0.6048(5) 0.1700 Uiso
C108 C -0.0211(7) 0.7651(4) 0.5726(5) 0.1800 Uiso
C109 C 0.0177(7) 0.7363(4) 0.5647(5) 0.1800 Uiso
C110 C 0.0690(7) 0.7285(4) 0.5992(5) 0.1900 Uiso
C111 C 0.1100(7) 0.6991(4) 0.5949(5) 0.1500 Uiso
C112 C 0.0998(7) 0.6774(4) 0.5561(5) 0.2500 Uiso
C113 C 0.0485(7) 0.6852(4) 0.5216(5) 0.2100 Uiso
C114 C 0.0075(7) 0.7147(4) 0.5259(5) 0.2200 Uiso
C115 C 0.1518(7) 0.6468(4) 0.5546(5) 0.1900 Uiso
C116 C 0.1994(7) 0.6432(4) 0.5870(5) 0.2400 Uiso
C117 C 0.2079(7) 0.6652(4) 0.6334(5) 0.1600 Uiso
C118 C -0.5421(7) 1.0023(4) 0.7604(5) 0.1700 Uiso
N4 N 1.2147(7) 0.5492(4) 0.6708(5) 0.2400 Uiso
N5 N 1.2293(7) 0.5643(4) 0.7616(5) 0.2700 Uiso
N6 N -0.4408(7) 0.9034(4) 0.6244(5) 0.2300 Uiso
N7 N -0.5349(7) 0.9712(4) 0.6880(5) 0.1800 Uiso
N8 N -0.4952(7) 0.9100(4) 0.7353(5) 0.1900 Uiso
N9 N -0.5838(7) 0.8954(4) 0.6256(5) 0.2400 Uiso
N10 N 0.2660(7) 0.7507(4) 0.6910(5) 0.1200 Uiso
N11 N 0.0865(7) 0.7487(4) 0.6333(5) 0.1400 Uiso
N12 N 0.1645(7) 0.6872(4) 0.6286(5) 0.1600 Uiso
O1 O 0.5985(7) 0.7959(4) 0.5300(5) 0.1517 Uani
O2 O -0.6386(7) 1.1628(4) 0.5566(5) 0.1439 Uani
O3 O -0.3800(7) 0.7474(4) 0.9352(5) 0.2034 Uani
O4 O 0.8049(7) 0.7402(4) 0.5903(5) 0.1976 Uani
O5 O -0.1185(7) 0.6858(4) 0.9478(5) 0.1753 Uani
O6 O 1.1640(7) 0.3478(4) 0.9600(5) 0.2827 Uani
O7 O -0.2783(7) 0.7749(4) 0.9421(5) 0.3840 Uani
O8 O 0.8153(7) 0.7166(4) 0.5239(5) 0.2650 Uani
O9 O 1.1925(7) 0.3191(4) 0.9011(5) 0.1657 Uani
O10 O -0.7433(7) 1.1448(4) 0.5560(5) 0.2658 Uani
O11 O 0.6660(7) 0.7863(4) 0.5883(5) 0.1831 Uani
O12 O -0.1244(7) 0.7435(4) 0.9515(5) 0.1849 Uani
O13 O 0.7504(7) 0.7860(4) 0.4996(5) 0.0430 Uiso
C119 C -0.5714(7) 0.9876(4) 0.6139(5) 0.2000 Uiso
C120 C -0.769(12) 0.92(2) 0.654(9) 2.0000 Uiso
C121 C -0.699(13) 0.91(3) 0.653(10) 0.9000 Uiso
C122 C -0.655(10) 0.917(18) 0.693(12) 2.0000 Uiso
C123 C -0.682(14) 0.925(6) 0.735(8) 0.2400 Uiso
C124 C -0.751(16) 0.931(13) 0.737(8) 0.6000 Uiso
C125 C -0.795(11) 0.927(17) 0.696(11) 0.7000 Uiso
C126 C 1.143(7) 0.577(12) 0.838(16) 0.8000 Uiso
C127 C 1.13(2) 0.557(10) 0.877(14) 0.5000 Uiso
C128 C 1.06(3) 0.552(9) 0.888(9) 0.6000 Uiso
C129 C 1.009(16) 0.565(8) 0.859(8) 0.6000 Uiso
C130 C 1.022(6) 0.584(3) 0.820(4) 0.1000 Uiso
C131 C 1.089(9) 0.590(9) 0.809(10) 0.4000 Uiso
C132 C 1.012(7) 0.522(6) 0.566(8) 0.2800 Uiso
C133 C 1.036(12) 0.504(5) 0.606(8) 0.2800 Uiso
C134 C 1.102(13) 0.511(5) 0.625(5) 0.3000 Uiso
C135 C 1.143(7) 0.534(5) 0.605(7) 0.2100 Uiso
C136 C 1.119(11) 0.552(4) 0.565(7) 0.2800 Uiso
C137 C 1.053(13) 0.546(5) 0.545(5) 0.2500 Uiso
C138 C -0.32(2) 0.924(13) 0.772(8) 0.5000 Uiso
C139 C -0.278(16) 0.898(11) 0.752(15) 0.5000 Uiso
C140 C -0.289(17) 0.891(8) 0.705(16) 0.4000 Uiso
C141 C -0.338(18) 0.910(9) 0.678(8) 0.2900 Uiso
C142 C -0.376(15) 0.936(9) 0.698(13) 0.4000 Uiso
C143 C -0.36(2) 0.943(10) 0.745(14) 1.2000 Uiso
C144 C 0.062(15) 0.797(5) 0.685(6) 0.2300 Uiso
C145 C 0.129(12) 0.808(6) 0.696(8) 0.2400 Uiso
C146 C 0.147(10) 0.825(6) 0.737(10) 0.3300 Uiso
C147 C 0.098(19) 0.832(6) 0.768(6) 0.4000 Uiso
C148 C 0.030(16) 0.822(7) 0.757(9) 0.3600 Uiso
C149 C 0.012(8) 0.804(6) 0.716(11) 0.3200 Uiso
C150 C 0.256(10) 0.658(4) 0.670(5) 0.1800 Uiso
C151 C 0.232(6) 0.660(4) 0.714(7) 0.1900 Uiso
C152 C 0.277(11) 0.660(5) 0.754(5) 0.2400 Uiso
C153 C 0.346(10) 0.658(6) 0.750(7) 0.5000 Uiso
C154 C 0.371(6) 0.655(6) 0.706(9) 0.3300 Uiso
C155 C 0.326(11) 0.656(5) 0.666(6) 0.3000 Uiso
O15 O -0.271(16) 0.931(8) 0.814(10) 0.2200 Uiso
O16 O 0.10(2) 0.839(10) 0.811(14) 0.4800 Uiso
C156 C -0.744(19) 0.951(10) 0.877(12) 0.3300 Uiso
C157 C -0.72(3) 0.924(13) 0.839(19) 0.4000 Uiso
O23 O 0.951(12) 0.531(6) 0.541(8) 0.3400 Uiso
C160 C 1.184(11) 0.479(6) 0.788(7) 0.2200 Uiso
O26 O -0.75(2) 0.938(11) 0.792(16) 0.5000 Uiso
C164 C -0.32(3) 0.953(16) 0.83(2) 0.3000 Uiso
Zn2A Zn 1.2442(7) 0.2827(4) 0.9317(5) 0.0947 Uani
Zn4C Zn 0.7882(8) 0.7436(4) 0.4763(6) 0.1186 Uani
O8C O -0.1847(7) 0.7834(4) 1.0239(5) 0.2650 Uani
O9A O 0.8075(7) 0.8191(4) 0.5989(5) 0.1657 Uani
O13C O -0.2496(7) 0.7140(4) 0.9996(5) 0.0430 Uiso
loop_
_atom_site_aniso_label
_atom_site_aniso_U_11
_atom_site_aniso_U_22
_atom_site_aniso_U_33
_atom_site_aniso_U_23
_atom_site_aniso_U_13
_atom_site_aniso_U_12
Zn2 0.088(11) 0.092(11) 0.106(11) 0.003(8) 0.019(8) 0.008(8)
Zn4 0.116 0.112 0.13 0.011 0.023 -0.023
Cu1 0.17 0.147 0.25 0.07 0.029 0.037
Cu2 0.22 0.118 0.23 0.037 0.018 0.055
Cu3 0.094(13) 0.178(18) 0.130(14) 0.013(12) 0.032(10) -0.007(11)
O1 0.09(6) 0.20(10) 0.17(8) 0.05(7) 0.04(6) 0.06(6)
O2 0.11 0.16 0.16 0.08 0 0.03
O3 0.19 0.24 0.17 0.04 -0.05 0.1
O4 0.29 0.15 0.15 0.02 0 -0.06
O5 0.16 0.23 0.15 0.02 0.1 0.06
O6 0.5 0.13 0.22 0.06 0.04 0.2
O7 0.22 0.21 0.7 0.3 -0.1 0.02
O8 0.31 0.21 0.3 0.1 0.18 0.14
O9 0.18 0.18 0.14 -0.01 0.03 -0.02
O10 0.23 0.19 0.38 0.21 0.04 0.04
O11 0.23(13) 0.18(10) 0.14(8) -0.03(7) 0.02(8) -0.04(8)
O12 0.15 0.2 0.22 -0.06 0.11 -0.1
Zn2A 0.088 0.092 0.106 -0.003 0.019 -0.008
Zn4C 0.116(13) 0.112(13) 0.130(13) -0.011(10) 0.023(11) 0.023(10)
O8C 0.31 0.21 0.3 -0.1 0.18 -0.14
O9A 0.18(10) 0.18(10) 0.14(7) 0.01(7) 0.03(7) 0.02(8)
loop_
_geom_bond_atom_site_label_1
_geom_bond_atom_site_label_2
_geom_bond_site_symmetry_1
_geom_bond_site_symmetry_2
Zn2 O4 1_555 1_555
Zn4 O7 1_555 1_555
Cu1 N2 1_555 1_555
Cu2 N6 1_555 1_555
Cu3 N1 1_555 1_555
C1 C3 1_555 1_555
C2 C3 1_555 1_555
C3 C4 1_555 1_555
C4 C5 1_555 1_555
C5 C6 1_555 1_555
C6 N1 1_555 1_555
N1 C2 1_555 1_555
C7 C8 1_555 1_555
C8 C2 1_555 1_555
C9 C1 1_555 1_555
N2 C13 1_555 1_555
N3 Cu1 1_555 1_555
C10 C11 1_555 1_555
C11 C12 1_555 1_555
C12 N3 1_555 1_555
C13 C14 1_555 1_555
C14 C16 1_555 1_555
C15 C12 1_555 1_555
C16 C21 1_555 1_555
C17 N3 1_555 1_555
C18 C10 1_555 1_555
C19 C18 1_555 1_555
C20 N2 1_555 1_555
C21 C20 1_555 1_555
C22 C19 1_555 1_555
C23 C24 1_555 1_555
C24 C25 1_555 1_555
C25 C118 1_555 1_555
C26 C28 1_555 1_555
C27 C100 1_555 1_555
C28 C99 1_555 1_555
C29 C30 1_555 1_555
C30 C32 1_555 1_555
C31 C89 1_555 1_555
C32 C33 1_555 1_555
C33 C5 1_555 1_555
C34 C33 1_555 1_555
C35 C29 1_555 1_555
C36 C83 1_555 1_555
C37 C47 1_555 1_555
C38 C53 1_555 1_555
C39 C29 1_555 1_555
C40 C41 1_555 1_555
C41 C42 1_555 1_555
C42 C43 1_555 1_555
C43 C44 1_555 1_555
C44 C24 1_555 1_555
C45 C44 1_555 1_555
C46 C41 1_555 1_555
C47 C48 1_555 1_555
C48 C49 1_555 1_555
C49 C50 1_555 1_555
C50 C14 1_555 1_555
C51 C50 1_555 1_555
C52 C47 1_555 1_555
C53 C54 1_555 1_555
C54 C55 1_555 1_555
C55 C56 1_555 1_555
C56 C11 1_555 1_555
C57 C56 1_555 1_555
C58 C53 1_555 1_555
C59 C60 1_555 1_555
C60 C64 1_555 1_555
C61 C62 1_555 1_555
C62 C63 1_555 1_555
C63 C64 1_555 1_555
C64 C65 1_555 1_555
C65 C66 1_555 1_555
C66 C67 1_555 1_555
C67 C59 1_555 1_555
C68 C67 1_555 1_555
C69 C68 1_555 1_555
C70 C69 1_555 1_555
C71 C72 1_555 1_555
C72 C74 1_555 1_555
C73 C75 1_555 1_555
C74 C76 1_555 1_555
C75 C76 1_555 1_555
C77 C74 1_555 1_555
C78 C77 1_555 1_555
C79 C80 1_555 1_555
C80 N6 1_555 1_555
C81 C79 1_555 1_555
C82 C71 1_555 1_555
C83 C84 1_555 1_555
C84 C85 1_555 1_555
C85 C86 1_555 1_555
C86 C87 1_555 1_555
C87 C88 1_555 1_555
C88 C83 1_555 1_555
C89 C90 1_555 1_555
C90 C91 1_555 1_555
C91 C92 1_555 1_555
C92 C93 1_555 1_555
C93 C94 1_555 1_555
C94 C89 1_555 1_555
C95 C96 1_555 1_555
C96 C97 1_555 1_555
C97 C92 1_555 1_555
C98 C97 1_555 1_555
C99 C98 1_555 1_555
C100 C99 1_555 1_555
C101 C102 1_555 1_555
C102 C86 1_555 1_555
C103 C102 1_555 1_555
C104 C6 1_555 1_555
C105 C101 1_555 1_555
C106 C107 1_555 1_555
C107 C108 1_555 1_555
C108 C109 1_555 1_555
C109 C110 1_555 1_555
C110 C111 1_555 1_555
C111 C112 1_555 1_555
C112 C113 1_555 1_555
C113 C114 1_555 1_555
C114 C109 1_555 1_555
C115 C112 1_555 1_555
C116 C115 1_555 1_555
C117 C116 1_555 1_555
C118 C26 1_555 1_555
N4 Cu1 1_555 1_555
N5 Cu1 1_555 1_555
N6 C71 1_555 1_555
N7 Cu2 1_555 1_555
N8 Cu2 1_555 1_555
N9 Cu2 1_555 1_555
N10 Cu3 1_555 1_555
N11 Cu3 1_555 1_555
N12 Cu3 1_555 1_555
O1 C36 1_555 1_555
O2 C40 1_555 1_555
O3 C31 1_555 1_555
O4 C38 1_555 1_555
O5 C39 1_555 1_555
O6 C37 1_555 1_555
O7 C31 1_555 1_555
O8 C38 1_555 1_555
O9 C37 1_555 1_555
O10 C40 1_555 1_555
O11 Zn2 1_555 1_555
O12 Zn4 1_555 1_555
O13 Zn2 1_555 1_555
C119 C23 1_555 1_555
C120 C121 1_555 1_555
C121 C73 1_555 1_555
C122 C121 1_555 1_555
C123 C122 1_555 1_555
C124 C123 1_555 1_555
C125 C120 1_555 1_555
C126 C61 1_555 1_555
C127 C126 1_555 1_555
C128 C127 1_555 1_555
C129 C128 1_555 1_555
C130 C129 1_555 1_555
C131 C126 1_555 1_555
C132 C133 1_555 1_555
C133 C134 1_555 1_555
C134 C135 1_555 1_555
C135 C70 1_555 1_555
C136 C135 1_555 1_555
C137 C132 1_555 1_555
C138 C139 1_555 1_555
C139 C140 1_555 1_555
C140 C141 1_555 1_555
C141 C80 1_555 1_555
C142 C141 1_555 1_555
C143 C138 1_555 1_555
C144 C106 1_555 1_555
C145 C144 1_555 1_555
C146 C145 1_555 1_555
C147 C146 1_555 1_555
C148 C147 1_555 1_555
C149 C144 1_555 1_555
C150 C117 1_555 1_555
C151 C150 1_555 1_555
C152 C151 1_555 1_555
C153 C152 1_555 1_555
C154 C153 1_555 1_555
C155 C150 1_555 1_555
O15 C138 1_555 1_555
O16 C147 1_555 1_555
C156 C157 1_555 1_555
C157 O26 1_555 1_555
O17 C162 1_555 1_555
O23 C132 1_555 1_555
C160 C13 1_555 1_555
O26 C124 1_555 1_555
C164 O15 1_555 1_555
Zn2A O9 1_555 1_555
Zn4C O8 1_555 1_555
O8C Zn4 1_555 1_555
O9A Zn2 1_555 1_555
O13C Zn4 1_555 1_555
C7 C9 1_555 1_555
C8 N10 1_555 1_555
C17 C18 1_555 1_555
C17 C20 1_555 1_555
C21 C22 1_555 1_555
C23 N7 1_555 1_555
C27 C118 1_555 1_555
C27 N7 1_555 1_555
C34 C35 1_555 1_555
C36 O11 1_555 1_555
C39 O12 1_555 1_555
C45 C46 1_555 1_555
C51 C52 1_555 1_555
C57 C58 1_555 1_555
C59 N4 1_555 1_555
C60 N5 1_555 1_555
C61 N5 1_555 1_555
C70 N4 1_555 1_555
C72 N9 1_555 1_555
C73 N9 1_555 1_555
C78 C82 1_555 1_555
C81 C82 1_555 1_555
C96 N8 1_555 1_555
C100 N8 1_555 1_555
C101 N10 1_555 1_555
C106 N11 1_555 1_555
C110 N11 1_555 1_555
C111 N12 1_555 1_555
C117 N12 1_555 1_555
O13 Zn4C 1_555 1_555
C124 C125 1_555 1_555
C130 C131 1_555 1_555
C136 C137 1_555 1_555
C142 C143 1_555 1_555
C148 C149 1_555 1_555
C154 C155 1_555 1_555

#END
