
#######################################################################
#
#                 Cambridge Crystallographic Data Centre
#                                CCDC 
#
#######################################################################
#
# If this CIF has been generated from an entry in the Cambridge 
# Structural Database, then it will include bibliographic, chemical, 
# crystal, experimental, refinement or atomic coordinate data resulting 
# from the CCDC's data processing and validation procedures.
#
#######################################################################

data_VAHPUR
_chemical_formula_moiety         '(C96 H64 Cu2 Dy2 N8 O16)n'
_symmetry_cell_setting           tetragonal
_symmetry_space_group_name_H-M   'I -4'
_symmetry_Int_Tables_number      82
_space_group_name_Hall           'I -4'
loop_
_symmetry_equiv_pos_site_id
_symmetry_equiv_pos_as_xyz
1 x,y,z
2 -x,-y,z
3 y,-x,-z
4 -y,x,-z
5 1/2+x,1/2+y,1/2+z
6 1/2-x,1/2-y,1/2+z
7 1/2+y,1/2-x,1/2-z
8 1/2-y,1/2+x,1/2-z
_cell_length_a                   25.481(8)
_cell_length_b                   25.481(8)
_cell_length_c                   16.043(6)
_cell_angle_alpha                90
_cell_angle_beta                 90
_cell_angle_gamma                90
_cell_volume                     10416.4
loop_
_atom_site_label
_atom_site_type_symbol
_atom_site_fract_x
_atom_site_fract_y
_atom_site_fract_z
Dy1 Dy 0.591470(8) 0.706906(8) 0.747798(15)
Cu1 Cu 0.79826(2) 0.61103(3) -0.00167(4)
C1 C 0.6425(2) 0.6857(3) 0.6023(3)
C2 C 0.6680(2) 0.6785(3) 0.5180(3)
C3 C 0.7210(2) 0.6732(3) 0.5087(4)
H1 H 0.7426 0.6748 0.5553
C4 C 0.7431(2) 0.6654(3) 0.4304(4)
H2 H 0.7794 0.6635 0.4250
C5 C 0.6358(3) 0.6732(4) 0.4470(4)
H3 H 0.5996 0.6756 0.4521
C6 C 0.6576(2) 0.6648(4) 0.3717(4)
H4 H 0.6356 0.6619 0.3255
C7 C 0.7115(2) 0.6603(2) 0.3600(4)
C8 C 0.7328(2) 0.6499(2) 0.2767(3)
C9 C 0.77903(18) 0.67387(18) 0.2464(4)
H5 H 0.7984 0.6959 0.2809
C10 C 0.7956(2) 0.6647(2) 0.1654(3)
H6 H 0.8260 0.6812 0.1470
C11 C 0.7079(2) 0.6159(3) 0.2224(3)
H7 H 0.6777 0.5982 0.2389
C12 C 0.7283(2) 0.6083(3) 0.1433(4)
H8 H 0.7116 0.5839 0.1094
C13 C 0.6295(2) 0.7453(2) 0.8958(3)
C14 C 0.63847(19) 0.76044(19) 0.9851(3)
C15 C 0.6133(2) 0.8045(2) 1.0158(3)
H9 H 0.5915 0.8238 0.9808
C16 C 0.6200(3) 0.8201(2) 1.0970(4)
H10 H 0.6034 0.8503 1.1160
C17 C 0.6691(2) 0.7308(2) 1.0367(3)
H11 H 0.6850 0.7004 1.0169
C18 C 0.6764(2) 0.7464(2) 1.1198(3)
H12 H 0.6981 0.7266 1.1542
C19 C 0.6517(2) 0.7910(2) 1.1518(3)
C20 C 0.66044(19) 0.8075(2) 1.2394(4)
C21 C 0.6219(2) 0.8305(3) 1.2861(3)
H13 H 0.5884 0.8346 1.2639
C22 C 0.6325(2) 0.8479(3) 1.3670(4)
H14 H 0.6054 0.8631 1.3975
C23 C 0.7092(2) 0.8020(2) 1.2763(3)
H15 H 0.7366 0.7867 1.2468
C24 C 0.7172(2) 0.8193(2) 1.3578(4)
H16 H 0.7498 0.8136 1.3822
C25 C 0.5353(2) 0.7872(2) 0.6794(3)
C26 C 0.5037(2) 0.8329(2) 0.6521(3)
C27 C 0.4504(2) 0.8342(2) 0.6687(4)
H17 H 0.4346 0.8058 0.6951
C28 C 0.4201(2) 0.8776(2) 0.6462(4)
H18 H 0.3845 0.8786 0.6590
C29 C 0.5267(3) 0.8749(2) 0.6108(4)
H19 H 0.5623 0.8744 0.5983
C30 C 0.4965(2) 0.9172(2) 0.5886(4)
H20 H 0.5124 0.9454 0.5619
C31 C 0.4434(2) 0.9192(2) 0.6047(3)
C32 C 0.4114(2) 0.9652(2) 0.5797(3)
C33 C 0.3774(3) 0.9877(3) 0.6342(4)
H21 H 0.3736 0.9744 0.6879
C34 C 0.3481(3) 1.0314(3) 0.6081(3)
H22 H 0.3255 1.0470 0.6464
C35 C 0.4145(2) 0.9863(2) 0.4996(3)
H23 H 0.4374 0.9719 0.4606
C36 C 0.3837(2) 1.0281(2) 0.4786(3)
H24 H 0.3857 1.0408 0.4243
C37 C 0.5262(2) 0.6321(2) 0.8135(4)
C38 C 0.4802(3) 0.5971(2) 0.8340(4)
C39 C 0.4626(4) 0.5605(4) 0.7815(6)
H25 H 0.4784 0.5570 0.7295
C40 C 0.4211(4) 0.5273(4) 0.8026(6)
H26 H 0.4120 0.4998 0.7673
C41 C 0.4530(3) 0.6051(3) 0.9070(4)
H27 H 0.4637 0.6312 0.9437
C42 C 0.4098(2) 0.5742(2) 0.9260(4)
H28 H 0.3913 0.5804 0.9749
C43 C 0.3941(3) 0.5348(3) 0.8742(4)
C44 C 0.3484(2) 0.5013(2) 0.8956(4)
C45 C 0.3491(3) 0.4474(3) 0.8832(4)
H29 H 0.3779 0.4315 0.8578
C46 C 0.3072(2) 0.4176(2) 0.9088(4)
H30 H 0.3087 0.3816 0.8999
C47 C 0.3033(2) 0.5217(2) 0.9317(4)
H31 H 0.3002 0.5577 0.9395
C48 C 0.2630(3) 0.4890(2) 0.9561(4)
H32 H 0.2336 0.5038 0.9811
O1 O 0.59324(16) 0.68199(19) 0.6068(2)
O2 O 0.66931(17) 0.6955(2) 0.6659(3)
O3 O 0.65028(18) 0.70378(18) 0.8666(2)
O4 O 0.6009(2) 0.77267(18) 0.8513(3)
O5 O 0.58512(14) 0.78862(16) 0.6734(3)
O6 O 0.51254(14) 0.74811(16) 0.7125(2)
O7 O 0.5344(2) 0.6720(2) 0.8552(3)
O8 O 0.5545(2) 0.62151(17) 0.7505(4)
N1 N 0.76978(17) 0.63292(17) 0.1119(3)
N2 N 0.67994(18) 0.84384(18) 1.4028(3)
N3 N 0.35075(17) 1.05209(18) 0.5314(3)
N4 N 0.26422(18) 0.43720(18) 0.9456(3)
Cu1E Cu 0.70174(2) 0.88897(3) 1.49833(4)
Cu1D Cu 0.29826(2) 1.11103(3) 0.49833(4)
Cu1A Cu 0.20174(2) 0.38897(3) 0.99833(4)
N2E N 0.82006(18) 0.65616(18) -0.0972(3)
N3D N 0.85075(17) 0.55209(18) 0.0314(3)
N4A N 0.73578(18) 0.56280(18) -0.0544(3)
Dy2 Dy 1.0000 0.5000 0.7500
Cu2 Cu 0.5000 0.5000 0.5000
C49 C 0.8981(2) 0.5185(2) 0.6992(4)
C50 C 0.8439(2) 0.5260(2) 0.6712(4)
C51 C 0.8308(3) 0.5267(4) 0.5885(4)
H33 H 0.8572 0.5239 0.5488
C52 C 0.7794(3) 0.5315(4) 0.5622(4)
H34 H 0.7721 0.5338 0.5055
C53 C 0.8027(3) 0.5312(4) 0.7281(4)
H35 H 0.8096 0.5331 0.7849
C54 C 0.7521(3) 0.5334(4) 0.6998(4)
H36 H 0.7250 0.5353 0.7386
C55 C 0.7397(3) 0.5330(3) 0.6174(4)
C56 C 0.6841(3) 0.5309(3) 0.5874(4)
C57 C 0.6698(3) 0.5109(4) 0.5121(5)
H37 H 0.6954 0.5012 0.4738
C58 C 0.6171(3) 0.5050(4) 0.4921(5)
H38 H 0.6090 0.4909 0.4402
C59 C 0.6443(3) 0.5505(4) 0.6340(5)
H39 H 0.6518 0.5682 0.6832
C60 C 0.5915(3) 0.5444(3) 0.6089(4)
H40 H 0.5654 0.5598 0.6414
O9 O 0.90901(19) 0.5181(2) 0.7763(2)
O10 O 0.93453(16) 0.5118(2) 0.6459(3)
N5 N 0.57725(19) 0.5180(2) 0.5416(3)
Cu2_2 Cu 1.5000 0.5000 0.5000
Cu2D Cu 1.0000 1.0000 1.0000
Cu2D_2 Cu 1.0000 0.0000 1.0000
C49A C 1.1019(2) 0.4815(2) 0.6992(4)
C49F C 1.0185(2) 0.6019(2) 0.8008(4)
C49G C 0.9815(2) 0.3981(2) 0.8008(4)
C50A C 1.1561(2) 0.4740(2) 0.6712(4)
C50F C 1.0260(2) 0.6561(2) 0.8288(4)
C50G C 0.9740(2) 0.3439(2) 0.8288(4)
C51A C 1.1692(3) 0.4733(4) 0.5885(4)
C51F C 1.0267(4) 0.6692(3) 0.9115(4)
C51G C 0.9733(4) 0.3308(3) 0.9115(4)
H33A H 1.1428 0.4761 0.5488
H33F H 1.0239 0.6428 0.9512
H33G H 0.9761 0.3572 0.9512
C52A C 1.2206(3) 0.4685(4) 0.5622(4)
C52F C 1.0315(4) 0.7206(3) 0.9378(4)
C52G C 0.9685(4) 0.2794(3) 0.9378(4)
H34A H 1.2279 0.4662 0.5055
H34F H 1.0338 0.7279 0.9945
H34G H 0.9662 0.2721 0.9945
C53A C 1.1973(3) 0.4688(4) 0.7281(4)
C53F C 1.0312(4) 0.6973(3) 0.7719(4)
C53G C 0.9688(4) 0.3027(3) 0.7719(4)
H35A H 1.1904 0.4669 0.7849
H35F H 1.0331 0.6904 0.7151
H35G H 0.9669 0.3096 0.7151
C54A C 1.2479(3) 0.4666(4) 0.6998(4)
C54F C 1.0334(4) 0.7479(3) 0.8002(4)
C54G C 0.9666(4) 0.2521(3) 0.8002(4)
H36A H 1.2750 0.4647 0.7386
H36F H 1.0353 0.7750 0.7614
H36G H 0.9647 0.2250 0.7614
C55A C 1.2603(3) 0.4670(3) 0.6174(4)
C55F C 1.0330(3) 0.7603(3) 0.8826(4)
C55G C 0.9670(3) 0.2397(3) 0.8826(4)
C56A C 1.3159(3) 0.4691(3) 0.5874(4)
C56F C 1.0309(3) 0.8159(3) 0.9126(4)
C56G C 0.9691(3) 0.1841(3) 0.9126(4)
C57A C 1.3302(3) 0.4891(4) 0.5121(5)
C57F C 1.0109(4) 0.8302(3) 0.9879(5)
C57G C 0.9891(4) 0.1698(3) 0.9879(5)
H37A H 1.3046 0.4988 0.4738
H37F H 1.0012 0.8046 1.0262
H37G H 0.9988 0.1954 1.0262
C58A C 1.3829(3) 0.4950(4) 0.4921(5)
C58F C 1.0050(4) 0.8829(3) 1.0079(5)
C58G C 0.9950(4) 0.1171(3) 1.0079(5)
H38A H 1.3910 0.5091 0.4402
H38F H 0.9909 0.8910 1.0598
H38G H 1.0091 0.1090 1.0598
C59A C 1.3557(3) 0.4495(4) 0.6340(5)
C59F C 1.0505(4) 0.8557(3) 0.8660(5)
C59G C 0.9495(4) 0.1443(3) 0.8660(5)
H39A H 1.3482 0.4318 0.6832
H39F H 1.0682 0.8482 0.8168
H39G H 0.9318 0.1518 0.8168
C60A C 1.4085(3) 0.4556(3) 0.6089(4)
C60F C 1.0444(3) 0.9085(3) 0.8911(4)
C60G C 0.9556(3) 0.0915(3) 0.8911(4)
H40A H 1.4346 0.4402 0.6414
H40F H 1.0598 0.9346 0.8586
H40G H 0.9402 0.0654 0.8586
O9A O 1.09099(19) 0.4819(2) 0.7763(2)
O9F O 1.0181(2) 0.59099(19) 0.7237(2)
O9G O 0.9819(2) 0.40901(19) 0.7237(2)
O10A O 1.06547(16) 0.4882(2) 0.6459(3)
O10F O 1.0118(2) 0.56547(16) 0.8541(3)
O10G O 0.9882(2) 0.43453(16) 0.8541(3)
N5A N 0.42275(19) 0.4820(2) 0.5416(3)
N5B N 0.5180(2) 0.42275(19) 0.4584(3)
N5C N 0.4820(2) 0.57725(19) 0.4584(3)
N5A_2 N 1.42275(19) 0.4820(2) 0.5416(3)
N5F N 1.0180(2) 0.92275(19) 0.9584(3)
N5G N 0.9820(2) 0.07725(19) 0.9584(3)
loop_
_geom_bond_atom_site_label_1
_geom_bond_atom_site_label_2
_geom_bond_site_symmetry_1
_geom_bond_site_symmetry_2
Dy1 O1 1_555 1_555
Cu1 N1 1_555 1_555
C1 C2 1_555 1_555
C2 C3 1_555 1_555
C3 H1 1_555 1_555
C4 C3 1_555 1_555
H2 C4 1_555 1_555
C5 C2 1_555 1_555
H3 C5 1_555 1_555
C6 C5 1_555 1_555
H4 C6 1_555 1_555
C7 C4 1_555 1_555
C8 C7 1_555 1_555
C9 C8 1_555 1_555
H5 C9 1_555 1_555
C10 C9 1_555 1_555
H6 C10 1_555 1_555
C11 C8 1_555 1_555
H7 C11 1_555 1_555
C12 C11 1_555 1_555
H8 C12 1_555 1_555
C13 C14 1_555 1_555
C14 C15 1_555 1_555
C15 H9 1_555 1_555
C16 C15 1_555 1_555
H10 C16 1_555 1_555
C17 C14 1_555 1_555
H11 C17 1_555 1_555
C18 C17 1_555 1_555
H12 C18 1_555 1_555
C19 C16 1_555 1_555
C20 C19 1_555 1_555
C21 C20 1_555 1_555
H13 C21 1_555 1_555
C22 C21 1_555 1_555
H14 C22 1_555 1_555
C23 C20 1_555 1_555
H15 C23 1_555 1_555
C24 C23 1_555 1_555
H16 C24 1_555 1_555
C25 C26 1_555 1_555
C26 C27 1_555 1_555
C27 H17 1_555 1_555
C28 C27 1_555 1_555
H18 C28 1_555 1_555
C29 C26 1_555 1_555
H19 C29 1_555 1_555
C30 C29 1_555 1_555
H20 C30 1_555 1_555
C31 C28 1_555 1_555
C32 C31 1_555 1_555
C33 C32 1_555 1_555
H21 C33 1_555 1_555
C34 C33 1_555 1_555
H22 C34 1_555 1_555
C35 C32 1_555 1_555
H23 C35 1_555 1_555
C36 C35 1_555 1_555
H24 C36 1_555 1_555
C37 C38 1_555 1_555
C38 C39 1_555 1_555
C39 H25 1_555 1_555
C40 C39 1_555 1_555
H26 C40 1_555 1_555
C41 C38 1_555 1_555
H27 C41 1_555 1_555
C42 C41 1_555 1_555
H28 C42 1_555 1_555
C43 C40 1_555 1_555
C44 C43 1_555 1_555
C45 C44 1_555 1_555
H29 C45 1_555 1_555
C46 C45 1_555 1_555
H30 C46 1_555 1_555
C47 C44 1_555 1_555
H31 C47 1_555 1_555
C48 C47 1_555 1_555
H32 C48 1_555 1_555
O1 C1 1_555 1_555
O2 Dy1 1_555 1_555
O3 Dy1 1_555 1_555
O4 Dy1 1_555 1_555
O5 Dy1 1_555 1_555
O6 Dy1 1_555 1_555
O7 Dy1 1_555 1_555
O8 Dy1 1_555 1_555
N1 C10 1_555 1_555
N2 C22 1_555 1_555
N3 C34 1_555 1_555
N4 C46 1_555 1_555
Dy2 O9 1_555 1_555
Cu2 N5 1_555 1_555
C49 C50 1_555 1_555
C50 C51 1_555 1_555
C51 H33 1_555 1_555
C52 C51 1_555 1_555
H34 C52 1_555 1_555
C53 C50 1_555 1_555
H35 C53 1_555 1_555
C54 C53 1_555 1_555
H36 C54 1_555 1_555
C55 C52 1_555 1_555
C56 C55 1_555 1_555
C57 C56 1_555 1_555
H37 C57 1_555 1_555
C58 C57 1_555 1_555
H38 C58 1_555 1_555
C59 C56 1_555 1_555
H39 C59 1_555 1_555
C60 C59 1_555 1_555
H40 C60 1_555 1_555
O9 C49 1_555 1_555
O10 Dy2 1_555 1_555
N5 C58 1_555 1_555
Cu1E N2 1_555 1_555
Cu1D N3 1_555 1_555
Cu1A N4 1_555 1_555
N2E Cu1 1_555 1_555
N3D Cu1 1_555 1_555
N4A Cu1 1_555 1_555
Cu2_2 N5A_2 1_555 1_555
Cu2D N5F 1_555 1_555
Cu2D_2 N5G 1_555 1_555
C49A C50A 1_555 1_555
C49F C50F 1_555 1_555
C49G C50G 1_555 1_555
C50A C51A 1_555 1_555
C50F C51F 1_555 1_555
C50G C51G 1_555 1_555
C51A H33A 1_555 1_555
C51F H33F 1_555 1_555
C51G H33G 1_555 1_555
C52A C51A 1_555 1_555
C52F C51F 1_555 1_555
C52G C51G 1_555 1_555
H34A C52A 1_555 1_555
H34F C52F 1_555 1_555
H34G C52G 1_555 1_555
C53A C50A 1_555 1_555
C53F C50F 1_555 1_555
C53G C50G 1_555 1_555
H35A C53A 1_555 1_555
H35F C53F 1_555 1_555
H35G C53G 1_555 1_555
C54A C53A 1_555 1_555
C54F C53F 1_555 1_555
C54G C53G 1_555 1_555
H36A C54A 1_555 1_555
H36F C54F 1_555 1_555
H36G C54G 1_555 1_555
C55A C52A 1_555 1_555
C55F C52F 1_555 1_555
C55G C52G 1_555 1_555
C56A C55A 1_555 1_555
C56F C55F 1_555 1_555
C56G C55G 1_555 1_555
C57A C56A 1_555 1_555
C57F C56F 1_555 1_555
C57G C56G 1_555 1_555
H37A C57A 1_555 1_555
H37F C57F 1_555 1_555
H37G C57G 1_555 1_555
C58A C57A 1_555 1_555
C58F C57F 1_555 1_555
C58G C57G 1_555 1_555
H38A C58A 1_555 1_555
H38F C58F 1_555 1_555
H38G C58G 1_555 1_555
C59A C56A 1_555 1_555
C59F C56F 1_555 1_555
C59G C56G 1_555 1_555
H39A C59A 1_555 1_555
H39F C59F 1_555 1_555
H39G C59G 1_555 1_555
C60A C59A 1_555 1_555
C60F C59F 1_555 1_555
C60G C59G 1_555 1_555
H40A C60A 1_555 1_555
H40F C60F 1_555 1_555
H40G C60G 1_555 1_555
O9A Dy2 1_555 1_555
O9F Dy2 1_555 1_555
O9G Dy2 1_555 1_555
O10A Dy2 1_555 1_555
O10F Dy2 1_555 1_555
O10G Dy2 1_555 1_555
N5A Cu2 1_555 1_555
N5B Cu2 1_555 1_555
N5C Cu2 1_555 1_555
N5A_2 C58A 1_555 1_555
N5F C58F 1_555 1_555
N5G C58G 1_555 1_555
C1 O2 1_555 1_555
C6 C7 1_555 1_555
C12 N1 1_555 1_555
C13 O3 1_555 1_555
C13 O4 1_555 1_555
C18 C19 1_555 1_555
C24 N2 1_555 1_555
C25 O5 1_555 1_555
C25 O6 1_555 1_555
C30 C31 1_555 1_555
C36 N3 1_555 1_555
C37 O7 1_555 1_555
C37 O8 1_555 1_555
C42 C43 1_555 1_555
C48 N4 1_555 1_555
C49 O10 1_555 1_555
C54 C55 1_555 1_555
C60 N5 1_555 1_555
C49A O9A 1_555 1_555
C49A O10A 1_555 1_555
C49F O9F 1_555 1_555
C49F O10F 1_555 1_555
C49G O9G 1_555 1_555
C49G O10G 1_555 1_555
C54A C55A 1_555 1_555
C54F C55F 1_555 1_555
C54G C55G 1_555 1_555
C60A N5A_2 1_555 1_555
C60F N5F 1_555 1_555
C60G N5G 1_555 1_555

#END
