
#######################################################################
#
#                 Cambridge Crystallographic Data Centre
#                                CCDC 
#
#######################################################################
#
# If this CIF has been generated from an entry in the Cambridge 
# Structural Database, then it will include bibliographic, chemical, 
# crystal, experimental, refinement or atomic coordinate data resulting 
# from the CCDC's data processing and validation procedures.
#
#######################################################################

data_EZESAF
_chemical_formula_moiety         '(C53 H55 Cu2 N9 O13)n'
_symmetry_cell_setting           monoclinic
_symmetry_space_group_name_H-M   'P 21/c'
_symmetry_Int_Tables_number      14
_space_group_name_Hall           '-P 2ybc'
loop_
_symmetry_equiv_pos_site_id
_symmetry_equiv_pos_as_xyz
1 x,y,z
2 -x,1/2+y,1/2-z
3 -x,-y,-z
4 x,1/2-y,1/2+z
_cell_length_a                   14.1390(11)
_cell_length_b                   20.5709(17)
_cell_length_c                   9.9284(8)
_cell_angle_alpha                90
_cell_angle_beta                 95.786(2)
_cell_angle_gamma                90
_cell_volume                     2872.98
loop_
_atom_site_label
_atom_site_type_symbol
_atom_site_fract_x
_atom_site_fract_y
_atom_site_fract_z
Cu1 Cu 0.189835(19) 0.735645(14) 0.69532(3)
C1 C 1.01719(18) 0.81783(13) 0.2193(3)
C2 C 0.94050(16) 0.85022(12) 0.2903(3)
C3 C 0.94749(19) 0.85433(17) 0.4302(3)
H1 H 0.9984 0.8348 0.4815
C4 C 0.87934(19) 0.88721(17) 0.4944(3)
H2 H 0.8840 0.8890 0.5884
C5 C 0.80441(16) 0.91741(12) 0.4190(3)
C6 C 0.79395(17) 0.91097(13) 0.2803(3)
H3 H 0.7413 0.9286 0.2294
C7 C 0.86265(18) 0.87804(13) 0.2172(3)
H4 H 0.8562 0.8746 0.1233
C8 C 0.1544(2) 0.87792(14) 0.6438(3)
H5 H 0.1956 0.8804 0.5766
C9 C 0.1015(2) 0.92732(15) 0.6846(4)
H6 H 0.1002 0.9698 0.6524
C10 C 0.0753(2) 0.84044(14) 0.8006(3)
H7 H 0.0516 0.8130 0.8636
C11 C -0.0161(3) 0.93950(19) 0.8576(4)
H8 H -0.0547 0.9676 0.7959
H9 H -0.0582 0.9095 0.8977
C12 C 0.0350(2) 0.97891(16) 0.9646(4)
H10 H 0.0806 1.0066 0.9256
H11 H 0.0697 0.9506 1.0304
C13 C 0.29389(17) 0.63311(13) 0.5657(3)
H12 H 0.3154 0.6628 0.5050
C14 C 0.22451(18) 0.59065(13) 0.7282(3)
H13 H 0.1883 0.5864 0.8008
C15 C 0.26998(19) 0.54128(13) 0.6713(3)
C16 C 0.47069(18) 0.51960(14) 0.5457(3)
H14 H 0.4637 0.4950 0.6274
H15 H 0.5040 0.5596 0.5717
C17 C 0.37356(19) 0.53569(15) 0.4766(3)
H16 H 0.3807 0.5631 0.3987
H17 H 0.3424 0.4958 0.4442
C18 C 0.35491(18) 0.80349(12) 0.6705(3)
C19 C 0.42157(16) 0.84103(11) 0.5904(2)
C20 C 0.49254(17) 0.87904(14) 0.6556(3)
H18 H 0.4997 0.8805 0.7497
C21 C 0.55320(17) 0.91497(13) 0.5840(3)
H19 H 0.6008 0.9402 0.6295
C22 C 0.54264(15) 0.91308(11) 0.4446(2)
C23 C 0.47194(18) 0.87535(14) 0.3773(3)
H20 H 0.4647 0.8742 0.2832
C24 C 0.41237(17) 0.83944(13) 0.4497(3)
H21 H 0.3654 0.8138 0.4040
C25 C 0.66995(17) 0.98757(13) 0.4237(3)
H22 H 0.6950 1.0142 0.3549
H23 H 0.6424 1.0164 0.4865
N1 N 0.13761(14) 0.82323(10) 0.7175(2)
N2 N 0.05042(18) 0.90280(12) 0.7821(3)
N3 N 0.23988(14) 0.64796(10) 0.6626(2)
N4 N 0.31338(14) 0.56924(11) 0.5671(2)
O1 O 1.09171(12) 0.80135(9) 0.29597(19)
O2 O 1.00676(16) 0.80997(12) 0.0961(2)
O3 O 0.74464(12) 0.95239(10) 0.49341(19)
O4 O 0.36471(16) 0.80562(12) 0.7947(2)
O5 O 0.28952(14) 0.77260(9) 0.5990(2)
O6 O 0.59850(12) 0.94669(9) 0.36203(18)
C8B C -0.1544(2) 1.12208(14) 1.3562(3)
H5B H -0.1956 1.1196 1.4234
C9B C -0.1015(2) 1.07268(15) 1.3154(4)
H6B H -0.1002 1.0302 1.3476
C10B C -0.0753(2) 1.15956(14) 1.1994(3)
H7B H -0.0516 1.1870 1.1364
C11B C 0.0161(3) 1.06050(19) 1.1424(4)
H8B H 0.0547 1.0324 1.2041
H9B H 0.0582 1.0905 1.1023
C12B C -0.0350(2) 1.02109(16) 1.0354(4)
H10B H -0.0806 0.9934 1.0744
H11B H -0.0697 1.0494 0.9696
N1B N -0.13761(14) 1.17677(10) 1.2825(2)
N2B N -0.05042(18) 1.09720(12) 1.2179(3)
C13B C 0.70611(17) 0.36689(13) 0.4343(3)
H12B H 0.6846 0.3372 0.4950
C14B C 0.77549(18) 0.40935(13) 0.2718(3)
H13B H 0.8117 0.4136 0.1992
C15B C 0.73002(19) 0.45872(13) 0.3287(3)
C16B C 0.52931(18) 0.48040(14) 0.4543(3)
H14B H 0.5363 0.5050 0.3726
H15B H 0.4960 0.4404 0.4283
C17B C 0.62644(19) 0.46431(15) 0.5234(3)
H16B H 0.6193 0.4369 0.6013
H17B H 0.6576 0.5042 0.5558
N3B N 0.76012(14) 0.35204(10) 0.3374(2)
N4B N 0.68662(14) 0.43076(11) 0.4329(2)
Cu1B Cu -0.189835(19) 1.264355(14) 1.30468(3)
C1B C -1.01719(18) 1.18217(13) 1.7807(3)
C2B C -0.94050(16) 1.14978(12) 1.7097(3)
C3B C -0.94749(19) 1.14567(17) 1.5698(3)
H1B H -0.9984 1.1652 1.5185
C4B C -0.87934(19) 1.11279(17) 1.5056(3)
H2B H -0.8840 1.1110 1.4116
C5B C -0.80441(16) 1.08259(12) 1.5810(3)
C6B C -0.79395(17) 1.08903(13) 1.7197(3)
H3B H -0.7413 1.0714 1.7706
C7B C -0.86265(18) 1.12196(13) 1.7828(3)
H4B H -0.8562 1.1254 1.8767
C18B C -0.35491(18) 1.19651(12) 1.3295(3)
C19B C -0.42157(16) 1.15897(11) 1.4096(2)
C20B C -0.49254(17) 1.12096(14) 1.3444(3)
H18B H -0.4997 1.1195 1.2503
C21B C -0.55320(17) 1.08503(13) 1.4160(3)
H19B H -0.6008 1.0598 1.3705
C22B C -0.54264(15) 1.08692(11) 1.5554(2)
C23B C -0.47194(18) 1.12465(14) 1.6227(3)
H20B H -0.4647 1.1258 1.7168
C24B C -0.41237(17) 1.16056(13) 1.5503(3)
H21B H -0.3654 1.1862 1.5960
C25B C -0.66995(17) 1.01243(13) 1.5763(3)
H22B H -0.6950 0.9858 1.6451
H23B H -0.6424 0.9836 1.5135
O1B O -1.09171(12) 1.19865(9) 1.70403(19)
O2B O -1.00676(16) 1.19003(12) 1.9039(2)
O3B O -0.74464(12) 1.04761(10) 1.50659(19)
O4B O -0.36471(16) 1.19438(12) 1.2053(2)
O5B O -0.28952(14) 1.22740(9) 1.4010(2)
O6B O -0.59850(12) 1.05331(9) 1.63797(18)
Cu1A Cu -1.189835(19) 1.235645(14) 1.80468(3)
Cu1B_2 Cu 0.810165(19) 0.264355(14) 0.30468(3)
Cu1C Cu 1.189835(19) 0.764355(14) 0.19532(3)
N3B_2 N -0.23988(14) 1.35204(10) 1.3374(2)
O1A O -0.09171(12) 1.30135(9) 1.20403(19)
O1C O 0.09171(12) 0.69865(9) 0.79597(19)
O7 O 0.3024(8) 0.3960(3) 0.5737(9)
N5 N 0.2969(8) 0.2904(4) 0.5947(14)
C26 C 0.3337(9) 0.3427(5) 0.5558(14)
H24 H 0.3880 0.3395 0.5108
C27 C 0.2141(9) 0.2993(7) 0.6500(18)
H25 H 0.2192 0.3369 0.7075
H26 H 0.2010 0.2617 0.7025
H27 H 0.1634 0.3054 0.5793
C28 C 0.3451(12) 0.2348(5) 0.581(2)
H28 H 0.4120 0.2439 0.5867
H29 H 0.3252 0.2158 0.4941
H30 H 0.3324 0.2050 0.6511
loop_
_geom_bond_atom_site_label_1
_geom_bond_atom_site_label_2
_geom_bond_site_symmetry_1
_geom_bond_site_symmetry_2
Cu1 N1 1_555 1_555
C1 C2 1_555 1_555
C2 C3 1_555 1_555
C3 H1 1_555 1_555
C4 C3 1_555 1_555
H2 C4 1_555 1_555
C5 C4 1_555 1_555
C6 C5 1_555 1_555
H3 C6 1_555 1_555
C7 C2 1_555 1_555
H4 C7 1_555 1_555
C8 H5 1_555 1_555
C9 C8 1_555 1_555
H6 C9 1_555 1_555
C10 H7 1_555 1_555
C11 H8 1_555 1_555
H9 C11 1_555 1_555
C12 C11 1_555 1_555
H10 C12 1_555 1_555
H11 C12 1_555 1_555
C13 H12 1_555 1_555
C14 H13 1_555 1_555
C15 C14 1_555 1_555
C16 H14 1_555 1_555
H15 C16 1_555 1_555
C17 C16 1_555 1_555
H16 C17 1_555 1_555
H17 C17 1_555 1_555
C18 C19 1_555 1_555
C19 C20 1_555 1_555
C20 H18 1_555 1_555
C21 C20 1_555 1_555
H19 C21 1_555 1_555
C22 C21 1_555 1_555
C23 C22 1_555 1_555
H20 C23 1_555 1_555
C24 C19 1_555 1_555
H21 C24 1_555 1_555
C25 H22 1_555 1_555
H23 C25 1_555 1_555
N1 C8 1_555 1_555
N2 C9 1_555 1_555
N3 Cu1 1_555 1_555
N4 C13 1_555 1_555
O1 C1 1_555 1_555
O2 C1 1_555 1_555
O3 C5 1_555 1_555
O4 C18 1_555 1_555
O5 Cu1 1_555 1_555
O6 C22 1_555 1_555
O7 C26 1_555 1_555
N5 C26 1_555 1_555
C26 H24 1_555 1_555
C27 N5 1_555 1_555
H25 C27 1_555 1_555
H26 C27 1_555 1_555
H27 C27 1_555 1_555
C28 N5 1_555 1_555
H28 C28 1_555 1_555
H29 C28 1_555 1_555
H30 C28 1_555 1_555
C8B H5B 1_555 1_555
C9B C8B 1_555 1_555
H6B C9B 1_555 1_555
C10B H7B 1_555 1_555
C11B H8B 1_555 1_555
H9B C11B 1_555 1_555
C12B C12 1_555 1_555
H10B C12B 1_555 1_555
H11B C12B 1_555 1_555
N1B C8B 1_555 1_555
N2B C9B 1_555 1_555
C13B H12B 1_555 1_555
C14B H13B 1_555 1_555
C15B C14B 1_555 1_555
C16B C16 1_555 1_555
H14B C16B 1_555 1_555
H15B C16B 1_555 1_555
C17B C16B 1_555 1_555
H16B C17B 1_555 1_555
H17B C17B 1_555 1_555
N3B C13B 1_555 1_555
N4B C13B 1_555 1_555
Cu1B N1B 1_555 1_555
C1B C2B 1_555 1_555
C2B C3B 1_555 1_555
C3B H1B 1_555 1_555
C4B C3B 1_555 1_555
H2B C4B 1_555 1_555
C5B C4B 1_555 1_555
C6B C5B 1_555 1_555
H3B C6B 1_555 1_555
C7B C2B 1_555 1_555
H4B C7B 1_555 1_555
C18B C19B 1_555 1_555
C19B C20B 1_555 1_555
C20B H18B 1_555 1_555
C21B C20B 1_555 1_555
H19B C21B 1_555 1_555
C22B C21B 1_555 1_555
C23B C22B 1_555 1_555
H20B C23B 1_555 1_555
C24B C19B 1_555 1_555
H21B C24B 1_555 1_555
C25B H22B 1_555 1_555
H23B C25B 1_555 1_555
O1B C1B 1_555 1_555
O2B C1B 1_555 1_555
O3B C5B 1_555 1_555
O4B C18B 1_555 1_555
O5B Cu1B 1_555 1_555
O6B C22B 1_555 1_555
Cu1A O1B 1_555 1_555
Cu1B_2 N3B 1_555 1_555
Cu1C O1 1_555 1_555
N3B_2 Cu1B 1_555 1_555
O1A Cu1B 1_555 1_555
O1C Cu1 1_555 1_555
C6 C7 1_555 1_555
C10 N1 1_555 1_555
C10 N2 1_555 1_555
C11 N2 1_555 1_555
C13 N3 1_555 1_555
C14 N3 1_555 1_555
C15 N4 1_555 1_555
C17 N4 1_555 1_555
C18 O5 1_555 1_555
C23 C24 1_555 1_555
C25 O3 1_555 1_555
C25 O6 1_555 1_555
C10B N1B 1_555 1_555
C10B N2B 1_555 1_555
C11B C12B 1_555 1_555
C11B N2B 1_555 1_555
C14B N3B 1_555 1_555
C15B N4B 1_555 1_555
C17B N4B 1_555 1_555
C6B C7B 1_555 1_555
C18B O5B 1_555 1_555
C23B C24B 1_555 1_555
C25B O3B 1_555 1_555
C25B O6B 1_555 1_555

#END
