
#######################################################################
#
#                 Cambridge Crystallographic Data Centre
#                                CCDC 
#
#######################################################################
#
# If this CIF has been generated from an entry in the Cambridge 
# Structural Database, then it will include bibliographic, chemical, 
# crystal, experimental, refinement or atomic coordinate data resulting 
# from the CCDC's data processing and validation procedures.
#
#######################################################################

data_VEMMIK
_chemical_formula_moiety         '(C14 H30 Cl2 Mn2 N10 O8)n'
_symmetry_cell_setting           rhombohedral
_symmetry_space_group_name_H-M   'R -3'
_symmetry_Int_Tables_number      148
_space_group_name_Hall           '-R 3'
loop_
_symmetry_equiv_pos_site_id
_symmetry_equiv_pos_as_xyz
1 x,y,z
2 -y,x-y,z
3 -x+y,-x,z
4 2/3+x,1/3+y,1/3+z
5 2/3-y,1/3+x-y,1/3+z
6 2/3-x+y,1/3-x,1/3+z
7 1/3+x,2/3+y,2/3+z
8 1/3-y,2/3+x-y,2/3+z
9 1/3-x+y,2/3-x,2/3+z
10 -x,-y,-z
11 y,-x+y,-z
12 x-y,x,-z
13 1/3-x,2/3-y,2/3-z
14 1/3+y,2/3-x+y,2/3-z
15 1/3+x-y,2/3+x,2/3-z
16 2/3-x,1/3-y,1/3-z
17 2/3+y,1/3-x+y,1/3-z
18 2/3+x-y,1/3+x,1/3-z
_cell_length_a                   33.018(7)
_cell_length_b                   33.018(7)
_cell_length_c                   8.603(1)
_cell_angle_alpha                90
_cell_angle_beta                 90
_cell_angle_gamma                120.00
_cell_volume                     8122.36
loop_
_atom_site_label
_atom_site_type_symbol
_atom_site_fract_x
_atom_site_fract_y
_atom_site_fract_z
O2 O 0.5137(9) 0.0714(11) -0.436(3)
O3 O 0.4597(8) 0.0888(9) -0.418(3)
O7 O 0.4542(10) 0.2371(10) -0.065(3)
O8 O 0.6619(13) 0.2717(13) 0.171(4)
O9 O 0.498(2) 0.173(2) -0.493(8)
O10 O 0.6667 0.3333 0.3333
Mn1 Mn 0.37921(4) 0.03799(4) 0.12012(13)
Cl1 Cl 0.39876(7) -0.01138(7) 0.2902(2)
O1 O 0.4458(2) 0.1012(2) 0.1191(7)
N1 N 0.3926(2) 0.0090(2) -0.1034(7)
N2 N 0.3592(2) -0.0033(2) -0.2139(7)
N3 N 0.3673(2) -0.0262(2) -0.3212(6)
N4 N 0.4035(2) -0.0309(2) -0.2881(7)
N5 N 0.4950(7) 0.1754(7) 0.156(2)
C1 C 0.4188(2) -0.0089(3) -0.1522(8)
C2 C 0.4587(3) -0.0048(3) -0.0743(8)
C3 C 0.4892(3) 0.0356(3) 0.0201(8)
H1 H 0.4821 0.0592 0.0344
C4 C 0.4716(3) -0.0390(3) -0.0885(8)
H2 H 0.4526 -0.0655 -0.1472
C5 C 0.4515(6) 0.1382(6) 0.165(2)
C7 C 0.5356(6) 0.1708(6) 0.101(2)
C8 C 0.4999(15) 0.2244(15) 0.204(5)
Mn1G Mn 0.29534(4) 0.00789(6) -0.21321(13)
Mn1E Mn 0.32545(6) -0.04588(4) 0.45345(13)
Mn1E_2 Mn 0.32545(6) -0.04588(4) -0.54655(13)
Mn1I Mn 0.62079(4) -0.03799(4) -0.12012(13)
Mn1P Mn 0.70466(4) -0.00789(6) 0.21321(13)
Mn1N Mn 0.67455(6) 0.04588(4) 0.54655(13)
Cl1G Cl 0.34471(7) 0.07681(10) -0.0431(2)
Cl1E Cl 0.25653(10) -0.06543(7) -0.3765(2)
O1G O 0.2321(2) 0.0113(3) -0.2142(7)
N1I N 0.6074(2) -0.0090(2) 0.1034(7)
N1G N 0.3243(2) 0.0503(3) -0.4367(7)
N2I N 0.6408(2) 0.0033(2) 0.2139(7)
N2E N 0.3042(3) -0.0259(2) 0.1194(7)
N3I N 0.6327(2) 0.0262(2) 0.3212(6)
N3G N 0.3595(2) 0.0602(3) 0.3455(6)
N3E N 0.2732(3) -0.0340(2) 0.0121(6)
N4I N 0.5965(2) 0.0309(2) 0.2881(7)
N5G N 0.1579(7) -0.0137(10) -0.177(2)
C1I C 0.5812(2) 0.0089(3) 0.1522(8)
C2I C 0.5413(3) 0.0048(3) 0.0743(8)
C3I C 0.5108(3) -0.0356(3) -0.0201(8)
H1I H 0.5179 -0.0592 -0.0344
C4I C 0.5284(3) 0.0390(3) 0.0885(8)
H2I H 0.5474 0.0655 0.1472
C5G C 0.1951(6) -0.0200(8) -0.168(2)
C7G C 0.1625(6) 0.0315(8) -0.232(2)
C8G C 0.1089(15) -0.0578(21) -0.129(5)
loop_
_geom_bond_atom_site_label_1
_geom_bond_atom_site_label_2
_geom_bond_site_symmetry_1
_geom_bond_site_symmetry_2
Mn1 Cl1 1_555 1_555
Cl1 Mn1E 1_555 1_555
O1 Mn1 1_555 1_555
N1 Mn1 1_555 1_555
N2 N1 1_555 1_555
N3 N2 1_555 1_555
N4 N3 1_555 1_555
N5 C5 1_555 1_555
C1 N1 1_555 1_555
C2 C1 1_555 1_555
C3 C2 1_555 1_555
H1 C3 1_555 1_555
C4 C2 1_555 1_555
H2 C4 1_555 1_555
C5 O1 1_555 1_555
C7 N5 1_555 1_555
C8 N5 1_555 1_555
Mn1G N2 1_555 1_555
Mn1E_2 N3 1_555 1_555
Mn1I N1I 1_555 1_555
Mn1P N2I 1_555 1_555
Mn1N N3I 1_555 1_555
Cl1G Mn1 1_555 1_555
Cl1E Mn1G 1_555 1_555
O1G Mn1G 1_555 1_555
N1I N2I 1_555 1_555
N1G Mn1G 1_555 1_555
N2I N3I 1_555 1_555
N2E Mn1 1_555 1_555
N3I N4I 1_555 1_555
N3G Mn1 1_555 1_555
N3E Mn1G 1_555 1_555
N4I C1I 1_555 1_555
N5G C5G 1_555 1_555
C1I N1I 1_555 1_555
C2I C1I 1_555 1_555
C3I C4 1_555 1_555
H1I C3I 1_555 1_555
C4I C3 1_555 1_555
H2I C4I 1_555 1_555
C5G O1G 1_555 1_555
C7G N5G 1_555 1_555
C8G N5G 1_555 1_555
N4 C1 1_555 1_555
Mn1G Cl1G 1_555 1_555
Mn1E_2 Cl1E 1_555 1_555
N2E N3E 1_555 1_555
C2I C3I 1_555 1_555
C2I C4I 1_555 1_555

#END
