
#######################################################################
#
#                 Cambridge Crystallographic Data Centre
#                                CCDC 
#
#######################################################################
#
# If this CIF has been generated from an entry in the Cambridge 
# Structural Database, then it will include bibliographic, chemical, 
# crystal, experimental, refinement or atomic coordinate data resulting 
# from the CCDC's data processing and validation procedures.
#
#######################################################################

data_DOLXOR02
_chemical_formula_moiety         '(C18 H28 Cu5 N10 O4)n'
_symmetry_cell_setting           monoclinic
_symmetry_space_group_name_H-M   'C 2/c'
_symmetry_Int_Tables_number      15
_space_group_name_Hall           '-C 2yc'
loop_
_symmetry_equiv_pos_site_id
_symmetry_equiv_pos_as_xyz
1 x,y,z
2 1/2+x,1/2+y,z
3 -x,y,1/2-z
4 1/2-x,1/2+y,1/2-z
5 -x,-y,-z
6 1/2-x,1/2-y,-z
7 x,-y,1/2+z
8 1/2+x,1/2-y,1/2+z
_cell_length_a                   14.0687(12)
_cell_length_b                   12.6223(10)
_cell_length_c                   16.4367(12)
_cell_angle_alpha                90
_cell_angle_beta                 92.001(6)
_cell_angle_gamma                90
_cell_volume                     2917.04
loop_
_atom_site_label
_atom_site_type_symbol
_atom_site_fract_x
_atom_site_fract_y
_atom_site_fract_z
Cu1 Cu -0.314176(15) -0.178113(19) 0.502659(14)
Cu2 Cu -0.5000 -0.10228(3) 0.2500
Cu3 Cu -0.5000 -0.13618(4) 0.7500
Cu4 Cu -0.0000 0.0000 0.5000
O1 O -0.07768(12) 0.14553(12) 0.55345(10)
O2 O 0.05027(11) -0.04700(12) 0.61537(9)
N1 N -0.11244(11) -0.08640(12) 0.51328(9)
N2 N -0.37969(14) -0.13643(15) 0.39964(12)
N3 N -0.38505(14) -0.15666(15) 0.60249(12)
N4 N -0.13113(13) 0.31112(14) 0.52568(12)
N5 N 0.14022(15) -0.01979(17) 0.72897(11)
C1 C -0.17868(13) -0.13792(16) 0.51073(11)
C2 C -0.42163(16) -0.11611(17) 0.34091(12)
C3 C -0.42643(15) -0.14472(17) 0.66021(12)
C4 C -0.08072(15) 0.22578(17) 0.51142(14)
H1 H -0.0441 0.2264 0.4654
C5 C -0.1863(2) 0.3205(2) 0.59770(17)
H2 H -0.1826 0.2555 0.6279
H3 H -0.2514 0.3350 0.5822
H4 H -0.1615 0.3774 0.6309
C6 C -0.1281(2) 0.4027(2) 0.47221(18)
H5 H -0.0892 0.3869 0.4269
H6 H -0.1016 0.4620 0.5017
H7 H -0.1913 0.4198 0.4527
C7 C 0.09692(16) 0.01171(18) 0.66164(14)
H8 H 0.1015 0.0829 0.6477
C8 C 0.1945(3) 0.0542(3) 0.78079(17)
H9 H 0.1917 0.1236 0.7570
H10 H 0.2595 0.0313 0.7856
H11 H 0.1679 0.0561 0.8338
C9 C 0.1367(2) -0.1280(2) 0.75604(16)
H12 H 0.0997 -0.1692 0.7174
H13 H 0.1080 -0.1310 0.8081
H14 H 0.2001 -0.1560 0.7607
Cu1B Cu -0.685824(15) -0.178113(19) -0.002659(14)
Cu1E Cu -0.185824(15) -0.321887(19) 0.497341(14)
Cu1G Cu -0.814176(15) -0.321887(19) 0.002659(14)
Cu3_2 Cu -0.5000 -0.13618(4) -0.2500
Cu4A Cu -0.5000 -0.5000 0.5000
O1D O 0.07768(12) -0.14553(12) 0.44655(10)
O2D O -0.05027(11) 0.04700(12) 0.38463(9)
N1E N -0.38756(11) -0.41360(12) 0.48672(9)
N1D N 0.11244(11) 0.08640(12) 0.48672(9)
N2B N -0.62031(14) -0.13643(15) 0.10036(12)
N3B N -0.61495(14) -0.15666(15) -0.10249(12)
N4D N 0.13113(13) -0.31112(14) 0.47432(12)
N5D N -0.14022(15) 0.01979(17) 0.27103(11)
C1E C -0.32132(13) -0.36208(16) 0.48927(11)
C1G C -0.67868(13) -0.36208(16) 0.01073(11)
C1B C -0.82132(13) -0.13792(16) -0.01073(11)
C2B C -0.57837(16) -0.11611(17) 0.15909(12)
C3B C -0.57357(15) -0.14472(17) -0.16021(12)
C3B_2 C -0.57357(15) -0.14472(17) 0.83979(12)
C4D C 0.08072(15) -0.22578(17) 0.48858(14)
H1D H 0.0441 -0.2264 0.5346
C5D C 0.1863(2) -0.3205(2) 0.40230(17)
H2D H 0.1826 -0.2555 0.3721
H3D H 0.2514 -0.3350 0.4178
H4D H 0.1615 -0.3774 0.3691
C6D C 0.1281(2) -0.4027(2) 0.52779(18)
H5D H 0.0892 -0.3869 0.5731
H6D H 0.1016 -0.4620 0.4983
H7D H 0.1913 -0.4198 0.5473
C7D C -0.09692(16) -0.01171(18) 0.33836(14)
H8D H -0.1015 -0.0829 0.3523
C8D C -0.1945(3) -0.0542(3) 0.21921(17)
H9D H -0.1917 -0.1236 0.2430
H10D H -0.2595 -0.0313 0.2144
H11D H -0.1679 -0.0561 0.1662
C9D C -0.1367(2) 0.1280(2) 0.24396(16)
H12D H -0.0997 0.1692 0.2826
H13D H -0.1080 0.1310 0.1919
H14D H -0.2001 0.1560 0.2393
loop_
_geom_bond_atom_site_label_1
_geom_bond_atom_site_label_2
_geom_bond_site_symmetry_1
_geom_bond_site_symmetry_2
Cu1 N2 1_555 1_555
Cu2 C2 1_555 1_555
Cu3 C3 1_555 1_555
Cu4 O1 1_555 1_555
O1 C4 1_555 1_555
O2 Cu4 1_555 1_555
N1 Cu4 1_555 1_555
N2 C2 1_555 1_555
N3 Cu1 1_555 1_555
N4 C4 1_555 1_555
N5 C7 1_555 1_555
C1 Cu1 1_555 1_555
C3 N3 1_555 1_555
C4 H1 1_555 1_555
C5 N4 1_555 1_555
H2 C5 1_555 1_555
H3 C5 1_555 1_555
H4 C5 1_555 1_555
C6 N4 1_555 1_555
H5 C6 1_555 1_555
H6 C6 1_555 1_555
H7 C6 1_555 1_555
C7 O2 1_555 1_555
H8 C7 1_555 1_555
C8 N5 1_555 1_555
H9 C8 1_555 1_555
H10 C8 1_555 1_555
H11 C8 1_555 1_555
C9 N5 1_555 1_555
H12 C9 1_555 1_555
H13 C9 1_555 1_555
H14 C9 1_555 1_555
Cu1B Cu1G 1_555 1_555
Cu1E Cu1 1_555 1_555
Cu1G C1G 1_555 1_555
Cu3_2 C3B 1_555 1_555
Cu4A N1E 1_555 1_555
O1D Cu4 1_555 1_555
O2D Cu4 1_555 1_555
N1E C1E 1_555 1_555
N1D Cu4 1_555 1_555
N2B Cu1B 1_555 1_555
N3B Cu1B 1_555 1_555
N4D C4D 1_555 1_555
N5D C7D 1_555 1_555
C1E Cu1 1_555 1_555
C1G Cu1B 1_555 1_555
C1B Cu1B 1_555 1_555
C2B Cu2 1_555 1_555
C3B N3B 1_555 1_555
C3B_2 Cu3 1_555 1_555
C4D O1D 1_555 1_555
H1D C4D 1_555 1_555
C5D N4D 1_555 1_555
H2D C5D 1_555 1_555
H3D C5D 1_555 1_555
H4D C5D 1_555 1_555
C6D N4D 1_555 1_555
H5D C6D 1_555 1_555
H6D C6D 1_555 1_555
H7D C6D 1_555 1_555
C7D O2D 1_555 1_555
H8D C7D 1_555 1_555
C8D N5D 1_555 1_555
H9D C8D 1_555 1_555
H10D C8D 1_555 1_555
H11D C8D 1_555 1_555
C9D N5D 1_555 1_555
H12D C9D 1_555 1_555
H13D C9D 1_555 1_555
H14D C9D 1_555 1_555
N1 C1 1_555 1_555
C1 Cu1E 1_555 1_555
Cu1E C1E 1_555 1_555
Cu1G C1B 1_555 1_555
N2B C2B 1_555 1_555

#END
