
#######################################################################
#
#                 Cambridge Crystallographic Data Centre
#                                CCDC 
#
#######################################################################
#
# If this CIF has been generated from an entry in the Cambridge 
# Structural Database, then it will include bibliographic, chemical, 
# crystal, experimental, refinement or atomic coordinate data resulting 
# from the CCDC's data processing and validation procedures.
#
#######################################################################

data_CAHSOU
_chemical_formula_moiety         '(C2 H16 F4 Fe5 N2 O28 P7 2-)n'
_symmetry_cell_setting           tetragonal
_symmetry_space_group_name_H-M   'P 43 21 2'
_symmetry_Int_Tables_number      96
_space_group_name_Hall           'P 4nw 2abw'
loop_
_symmetry_equiv_pos_site_id
_symmetry_equiv_pos_as_xyz
1 x,y,z
2 1/2-y,1/2+x,3/4+z
3 1/2+x,1/2-y,1/4-z
4 -x,-y,1/2+z
5 y,x,-z
6 1/2+y,1/2-x,1/4+z
7 1/2-x,1/2+y,3/4-z
8 -y,-x,1/2-z
_cell_length_a                   9.8636(1)
_cell_length_b                   9.8636(1)
_cell_length_c                   30.3529(6)
_cell_angle_alpha                90
_cell_angle_beta                 90
_cell_angle_gamma                90
_cell_volume                     2953.05
loop_
_atom_site_label
_atom_site_type_symbol
_atom_site_fract_x
_atom_site_fract_y
_atom_site_fract_z
Fe1 Fe 0.2297(1) 0.4206(1) 0.0908(1)
Fe2 Fe 0.4072(1) 0.9501(1) -0.0113(1)
Fe3 Fe 0.6888(1) 0.6888(1) 0.0000
P1 P 0.4444(1) 0.2219(1) 0.1402(1)
P2 P 0.2370(1) 0.2370(1) 0.0000
P3 P 0.9702(1) 0.6758(1) -0.0557(1)
P4 P 0.3782(1) 0.6552(1) 0.0306(1)
O1 O 0.2942(3) 0.3144(3) 0.0398(1)
O2 O 0.3108(3) 0.5935(3) 0.0707(1)
O3 O 0.3923(3) 0.3574(3) 0.1228(1)
O4 O 0.9779(3) 0.6714(3) -0.1055(1)
O5 O 0.5997(3) 0.2284(3) 0.1420(1)
F1 F 0.0731(3) 0.4929(3) 0.0535(1)
O6 O 0.3310(3) 0.8025(3) 0.0240(1)
O7 O 1.0008(3) 0.5334(3) -0.0373(1)
O8 O 0.0825(3) 0.2636(3) -0.0047(1)
O9 O 0.3778(3) 0.1926(3) 0.1854(1)
F2 F 0.8170(3) 0.5650(3) 0.0323(1)
O10 O 0.8352(3) 0.7363(3) -0.0407(1)
O11 O 0.5318(3) 0.6446(3) 0.0369(1)
O12 O 0.3954(3) 0.1017(3) 0.1102(1)
O13 O 1.0760(4) 0.7789(4) -0.0359(1)
O14 O 0.3345(3) 0.5798(3) -0.0132(1)
O1D O 0.3144(3) 0.2942(3) -0.0398(1)
O8D O 0.2636(3) 0.0825(3) 0.0047(1)
F2D F 0.5650(3) 0.8170(3) -0.0323(1)
P3D P 0.6758(1) 0.9702(1) 0.0557(1)
O4D O 0.6714(3) 0.9779(3) 0.1055(1)
O7D O 0.5334(3) 1.0008(3) 0.0373(1)
O10D O 0.7363(3) 0.8352(3) 0.0407(1)
O13D O 0.7789(4) 1.0760(4) 0.0359(1)
P4D P 0.6552(1) 0.3782(1) -0.0306(1)
O2D O 0.5935(3) 0.3108(3) -0.0707(1)
O6D O 0.8025(3) 0.3310(3) -0.0240(1)
O11D O 0.6446(3) 0.5318(3) -0.0369(1)
O14D O 0.5798(3) 0.3345(3) 0.0132(1)
Fe1D Fe 0.4206(1) 0.2297(1) -0.0908(1)
Fe2D Fe 0.9501(1) 0.4072(1) 0.0113(1)
P1B P -0.0556(1) 0.2781(1) 0.1098(1)
O3B O -0.1077(3) 0.1426(3) 0.1272(1)
O5B O 0.0997(3) 0.2716(3) 0.1080(1)
O9B O -0.1222(3) 0.3074(3) 0.0646(1)
O12B O -0.1046(3) 0.3983(3) 0.1398(1)
F1D F 0.4929(3) 1.0731(3) -0.0535(1)
O4E O 0.1714(3) 0.5221(3) 0.1445(1)
O8D_2 O 0.2636(3) 1.0825(3) 0.0047(1)
O9A O 0.3074(3) 0.8778(3) -0.0646(1)
Fe1A Fe 1.0794(1) 0.7297(1) -0.1592(1)
Fe1B Fe 0.7297(1) 0.0794(1) 0.1592(1)
Fe2D_2 Fe -0.0499(1) 0.4072(1) 0.0113(1)
Fe2E Fe 0.4501(1) 0.0928(1) 0.2387(1)
Fe2_2 Fe 0.4072(1) -0.0499(1) -0.0113(1)
Fe1B_2 Fe 0.7297(1) 1.0794(1) 0.1592(1)
O3D O 0.3574(3) 0.3923(3) -0.1228(1)
O4F O 0.5221(3) 0.1714(3) -0.1445(1)
O5A O 0.2716(3) 0.0997(3) -0.1080(1)
F1D_2 F 0.4929(3) 0.0731(3) -0.0535(1)
F1_2 F 1.0731(3) 0.4929(3) 0.0535(1)
O8_2 O 1.0825(3) 0.2636(3) -0.0047(1)
O9B_2 O 0.8778(3) 0.3074(3) 0.0646(1)
Fe1B_3 Fe -0.2703(1) 0.0794(1) 0.1592(1)
Fe1D_2 Fe 0.4206(1) 1.2297(1) -0.0908(1)
N1 N 0.6513(4) 0.4968(4) 0.1052(1)
C1 C 0.6671(6) 0.6137(7) 0.1355(2)
C2 C 0.5416(8) 0.6454(9) 0.1604(3)
N2 N 0.5329(9) 0.7302(9) 0.1910(3)
loop_
_geom_bond_atom_site_label_1
_geom_bond_atom_site_label_2
_geom_bond_site_symmetry_1
_geom_bond_site_symmetry_2
Fe1 O1 1_555 1_555
Fe2 O6 1_555 1_555
Fe3 F2 1_555 1_555
P1 O3 1_555 1_555
P2 O1 1_555 1_555
P3 O4 1_555 1_555
P4 O2 1_555 1_555
O2 Fe1 1_555 1_555
O3 Fe1 1_555 1_555
O4 Fe1A 1_555 1_555
O5 P1 1_555 1_555
F1 Fe1 1_555 1_555
O6 P4 1_555 1_555
O7 P3 1_555 1_555
O8 P2 1_555 1_555
O9 P1 1_555 1_555
F2 Fe2D 1_555 1_555
O10 Fe3 1_555 1_555
O11 Fe3 1_555 1_555
O12 P1 1_555 1_555
O13 P3 1_555 1_555
O14 P4 1_555 1_555
N1 C1 1_555 1_555
C1 C2 1_555 1_555
C2 N2 1_555 1_555
O1D P2 1_555 1_555
O8D P2 1_555 1_555
F2D Fe2 1_555 1_555
P3D O4D 1_555 1_555
O4D Fe1B_2 1_555 1_555
O7D Fe2 1_555 1_555
O10D Fe3 1_555 1_555
O13D P3D 1_555 1_555
P4D O2D 1_555 1_555
O2D Fe1D 1_555 1_555
O6D P4D 1_555 1_555
O11D Fe3 1_555 1_555
O14D P4D 1_555 1_555
Fe1D O1D 1_555 1_555
Fe2D O7 1_555 1_555
P1B O3B 1_555 1_555
O3B Fe1B_3 1_555 1_555
O5B Fe1 1_555 1_555
O9B P1B 1_555 1_555
O12B P1B 1_555 1_555
F1D Fe2 1_555 1_555
O4E Fe1 1_555 1_555
O8D_2 Fe2 1_555 1_555
O9A Fe2 1_555 1_555
Fe1B O5 1_555 1_555
Fe2D_2 F1 1_555 1_555
Fe2E O9 1_555 1_555
Fe2_2 O8D 1_555 1_555
O3D Fe1D 1_555 1_555
O4F Fe1D 1_555 1_555
O5A Fe1D 1_555 1_555
F1D_2 Fe1D 1_555 1_555
F1_2 Fe2D 1_555 1_555
O8_2 Fe2D 1_555 1_555
O9B_2 Fe2D 1_555 1_555
Fe1D_2 F1D 1_555 1_555
Fe3 F2D 1_555 1_555
P3 O10 1_555 1_555
P4 O11 1_555 1_555
O8 Fe2D_2 1_555 1_555
P3D O7D 1_555 1_555
P3D O10D 1_555 1_555
P4D O11D 1_555 1_555
O6D Fe2D 1_555 1_555
P1B O5B 1_555 1_555
O9B Fe2D_2 1_555 1_555
Fe2_2 F1D_2 1_555 1_555

#END
