
#######################################################################
#
#                 Cambridge Crystallographic Data Centre
#                                CCDC 
#
#######################################################################
#
# If this CIF has been generated from an entry in the Cambridge 
# Structural Database, then it will include bibliographic, chemical, 
# crystal, experimental, refinement or atomic coordinate data resulting 
# from the CCDC's data processing and validation procedures.
#
#######################################################################

data_KAJZIH
_chemical_formula_moiety         '(C9 H9 Cu2 O9)n'
_symmetry_cell_setting           tetragonal
_symmetry_space_group_name_H-M   'P 4/n m m'
_symmetry_Int_Tables_number      129
_space_group_name_Hall           '-P 4a 2a'
loop_
_symmetry_equiv_pos_site_id
_symmetry_equiv_pos_as_xyz
1 x,y,z
2 1/2-x,1/2-y,z
3 1/2-y,x,z
4 y,1/2-x,z
5 -x,1/2+y,-z
6 1/2+x,-y,-z
7 1/2+y,1/2+x,-z
8 -y,-x,-z
9 -x,-y,-z
10 1/2+x,1/2+y,-z
11 1/2+y,-x,-z
12 -y,1/2+x,-z
13 x,1/2-y,z
14 1/2-x,y,z
15 1/2-y,1/2-x,z
16 y,x,z
_cell_length_a                   19.2100(5)
_cell_length_b                   19.210
_cell_length_c                   6.9158(2)
_cell_angle_alpha                90
_cell_angle_beta                 90
_cell_angle_gamma                90
_cell_volume                     2552.1
loop_
_atom_site_label
_atom_site_type_symbol
_atom_site_fract_x
_atom_site_fract_y
_atom_site_fract_z
_atom_site_U_iso_or_equiv
_atom_site_thermal_displace_type
Cu1 Cu 0.67264(2) 0.17264(2) -0.5000 0.0169 Uani
Cu2 Cu 0.53003(2) 0.53003(2) 0.35189(8) 0.0088 Uani
O1 O 0.63198(16) 0.19197(13) -0.2665(4) 0.0232 Uani
O2 O 0.53227(18) 0.43386(14) 0.2615(4) 0.0302 Uani
O3 O 0.4841(2) 0.38177(15) 0.5124(4) 0.0408 Uani
C1 C 0.6153(3) 0.2500 -0.1982(7) 0.0133 Uani
C2 C 0.5742(3) 0.2500 -0.0145(7) 0.0137 Uani
C3 C 0.55650(18) 0.31241(17) 0.0724(5) 0.0131 Uani
H1 H 0.5659 0.3551 0.0083 0.0160 Uiso
C4 C 0.52472(17) 0.31270(18) 0.2546(5) 0.0120 Uani
C5 C 0.5092(3) 0.2500 0.3468(7) 0.0130 Uani
H2 H 0.4884 0.2500 0.4714 0.0160 Uiso
C6 C 0.51203(17) 0.38111(17) 0.3508(5) 0.0113 Uani
O4 O 0.57098(13) 0.57098(13) 0.0860(5) 0.0174 Uani
H3 H 0.6025(9) 0.6025(9) 0.055(9) 0.0490 Uiso
H4 H 0.559(2) 0.559(2) -0.030(5) 0.0490 Uiso
O1L O 0.63198(16) 0.30803(13) -0.2665(4) 0.0232 Uani
O2L O 0.53227(18) 0.06614(14) 0.2615(4) 0.0302 Uani
O3L O 0.4841(2) 0.11823(15) 0.5124(4) 0.0408 Uani
C3L C 0.55650(18) 0.18759(17) 0.0724(5) 0.0131 Uani
H1L H 0.5659 0.1449 0.0083 0.0160 Uiso
C4L C 0.52472(17) 0.18730(18) 0.2546(5) 0.0120 Uani
C6L C 0.51203(17) 0.11889(17) 0.3508(5) 0.0113 Uani
Cu1J Cu 0.67264(2) 0.32736(2) -0.5000 0.0169 Uani
Cu2C Cu 0.53003(2) -0.03003(2) 0.35189(8) 0.0088 Uani
Cu2D Cu 0.46997(2) 0.03003(2) 0.64811(8) 0.0088 Uani
Cu2G Cu 0.46997(2) 0.46997(2) 0.64811(8) 0.0088 Uani
O1F O 0.69197(13) 0.13198(16) -0.7335(4) 0.0232 Uani
O2O O 0.43386(14) 0.53227(18) 0.2615(4) 0.0302 Uani
O3G O 0.61823(15) 0.5159(2) 0.4876(4) 0.0408 Uani
O3H O 0.5159(2) 0.61823(15) 0.4876(4) 0.0408 Uani
O5 O 0.6771(4) 0.6771(4) 0.056(3) 0.1940 Uani
O6 O 0.6767(4) 0.6767(4) 0.546(3) 0.2087 Uani
loop_
_atom_site_aniso_label
_atom_site_aniso_U_11
_atom_site_aniso_U_22
_atom_site_aniso_U_33
_atom_site_aniso_U_23
_atom_site_aniso_U_13
_atom_site_aniso_U_12
Cu1 0.0189(2) 0.0189(2) 0.0129(3) -0.00577(17) 0.00577(17) -0.0007(2)
Cu2 0.0094(2) 0.0094(2) 0.0076(3) 0.00000(14) 0.00000(14) -0.0002(2)
O1 0.0369(17) 0.0123(13) 0.0203(13) -0.0033(10) 0.0168(12) -0.0019(11)
O2 0.058(2) 0.0097(12) 0.0230(14) -0.0001(10) 0.0252(14) 0.0017(12)
O3 0.083(3) 0.0141(13) 0.0254(15) -0.0082(12) 0.0334(17) -0.0153(15)
C1 0.014(2) 0.015(2) 0.011(2) 0.000 -0.0006(18) 0.000
C2 0.015(2) 0.015(2) 0.011(2) 0.000 0.0001(18) 0.000
C3 0.0153(16) 0.0107(15) 0.0133(15) 0.0005(12) 0.0008(13) -0.0004(13)
C4 0.0111(15) 0.0148(16) 0.0100(14) -0.0015(12) -0.0012(12) 0.0004(13)
C5 0.014(2) 0.014(2) 0.011(2) 0.000 0.0013(17) 0.000
C6 0.0107(14) 0.0115(14) 0.0116(14) -0.0015(12) -0.0009(11) -0.0004(12)
O4 0.0200(11) 0.0200(11) 0.0122(16) 0.0020(10) 0.0020(10) -0.0031(15)
O1L 0.0369 0.0123 0.0203 0.0033 0.0168 0.0019
O2L 0.058 0.0097 0.023 0.0001 0.0252 -0.0017
O3L 0.083 0.0141 0.0254 0.0082 0.0334 0.0153
C3L 0.0153 0.0107 0.0133 -0.0005 0.0008 0.0004
C4L 0.0111 0.0148 0.01 0.0015 -0.0012 -0.0004
C6L 0.0107 0.0115 0.0116 0.0015 -0.0009 0.0004
Cu1J 0.0189 0.0189 0.0129 0.00577 0.00577 0.0007
Cu2C 0.0094 0.0094 0.0076 0 0 0.0002
Cu2D 0.0094 0.0094 0.0076 0 0 0.0002
Cu2G 0.0094 0.0094 0.0076 0 0 -0.0002
O1F 0.0123 0.0369 0.0203 -0.0168 0.0033 -0.0019
O2O 0.0097 0.058 0.023 0.0252 -0.0001 0.0017
O3G 0.0141 0.083 0.0254 0.0334 -0.0082 -0.0153
O3H 0.083 0.0141 0.0254 -0.0082 0.0334 -0.0153
O5 0.091(5) 0.091(5) 0.40(2) 0.038(8) 0.038(8) -0.009(6)
O6 0.153(9) 0.153(9) 0.32(2) -0.006(8) -0.006(8) -0.075(10)
loop_
_geom_bond_atom_site_label_1
_geom_bond_atom_site_label_2
_geom_bond_site_symmetry_1
_geom_bond_site_symmetry_2
Cu1 O1 1_555 1_555
Cu2 O2 1_555 1_555
O1 C1 1_555 1_555
O2 C6 1_555 1_555
O3 C6 1_555 1_555
C1 C2 1_555 1_555
C2 C3 1_555 1_555
C3 H1 1_555 1_555
C4 C3 1_555 1_555
C5 C4 1_555 1_555
H2 C5 1_555 1_555
C6 C4 1_555 1_555
O4 Cu2 1_555 1_555
H3 O4 1_555 1_555
H4 O4 1_555 1_555
O1L C1 1_555 1_555
O2L C6L 1_555 1_555
O3L C6L 1_555 1_555
C3L C2 1_555 1_555
H1L C3L 1_555 1_555
C4L C5 1_555 1_555
C6L C4L 1_555 1_555
Cu1J O1L 1_555 1_555
Cu2C O2L 1_555 1_555
Cu2D O3L 1_555 1_555
Cu2G Cu2 1_555 1_555
O1F Cu1 1_555 1_555
O2O Cu2 1_555 1_555
O3G Cu2 1_555 1_555
O3H Cu2 1_555 1_555
O3 Cu2G 1_555 1_555
C3L C4L 1_555 1_555
Cu2C Cu2D 1_555 1_555

#END
