
#######################################################################
#
#                 Cambridge Crystallographic Data Centre
#                                CCDC 
#
#######################################################################
#
# If this CIF has been generated from an entry in the Cambridge 
# Structural Database, then it will include bibliographic, chemical, 
# crystal, experimental, refinement or atomic coordinate data resulting 
# from the CCDC's data processing and validation procedures.
#
#######################################################################

data_FAYKIB
_chemical_formula_moiety         '(C17 H8 In1 O9 1-)n'
_symmetry_cell_setting           orthorhombic
_symmetry_space_group_name_H-M   'C m c 21'
_symmetry_Int_Tables_number      36
_space_group_name_Hall           'C 2c -2'
loop_
_symmetry_equiv_pos_site_id
_symmetry_equiv_pos_as_xyz
1 x,y,z
2 -x,-y,1/2+z
3 -x,y,z
4 x,-y,1/2+z
5 1/2+x,1/2+y,z
6 1/2-x,1/2-y,1/2+z
7 1/2-x,1/2+y,z
8 1/2+x,1/2-y,1/2+z
_cell_length_a                   9.953(4)
_cell_length_b                   24.553(9)
_cell_length_c                   17.799(6)
_cell_angle_alpha                90
_cell_angle_beta                 90
_cell_angle_gamma                90
_cell_volume                     4349.65
loop_
_atom_site_label
_atom_site_type_symbol
_atom_site_fract_x
_atom_site_fract_y
_atom_site_fract_z
In1 In 0.5000 0.927396(6) 0.55558(4)
O1 O 0.5000 0.96024(12) 0.67366(13)
O2 O 0.5000 1.01575(9) 0.58035(13)
O3 O 0.5000 1.03931(9) 0.93410(13)
O4 O 0.5000 1.12887(11) 0.95150(16)
O5 O 0.85706(18) 1.36734(8) 0.60246(14)
O6 O 0.76175(18) 1.43517(6) 0.54896(15)
O7 O 0.5000 1.25155(7) 0.70838(8)
C1 C 0.5000 1.01006(13) 0.6499(2)
C2 C 0.5000 1.05663(17) 0.7022(3)
C3 C 0.5000 1.10554(11) 0.6698(3)
H1 H 0.5000 1.1091 0.6178
C4 C 0.5000 1.15257(12) 0.71760(18)
C5 C 0.5000 1.14853(16) 0.79499(15)
H2 H 0.5000 1.1793 0.8255
C6 C 0.5000 1.09442(19) 0.8262(2)
C7 C 0.5000 1.05026(16) 0.7795(2)
H3 H 0.5000 1.0154 0.7999
C8 C 0.5000 1.0862(2) 0.9089(3)
C9 C 0.5000 1.29518(5) 0.66826(4)
C10 C 0.6222(4) 1.32008(6) 0.64629(6)
H4 H 0.7036 1.3050 0.6612
C11 C 0.6210(3) 1.36770(9) 0.60192(11)
C12 C 0.5000 1.39005(11) 0.58128(13)
H5 H 0.5000 1.4215 0.5522
C13 C 0.7527(3) 1.39054(9) 0.58304(11)
C14 C 0.5000 1.20448(11) 0.6803(2)
H6 H 0.5778 1.2036 0.6475
In1A In 0.5000 1.072604(6) 1.05558(4)
In1D In 1.0000 1.427396(6) 0.55558(4)
In1D_2 In 0.0000 1.427396(6) 0.55558(4)
O3A O 0.5000 0.96069(9) 0.43410(13)
O4A O 0.5000 0.87113(11) 0.45150(16)
O5B O 0.14294(18) 1.36734(8) 0.60246(14)
O5D O 0.35706(18) 0.86734(8) 0.60246(14)
O5F O 0.64294(18) 0.86734(8) 0.60246(14)
O6B O 0.23825(18) 1.43517(6) 0.54896(15)
O6D O 0.26175(18) 0.93517(6) 0.54896(15)
O6F O 0.73825(18) 0.93517(6) 0.54896(15)
C10B C 0.3778(4) 1.32008(6) 0.64629(6)
H4B H 0.2964 1.3050 0.6612
C11B C 0.3790(3) 1.36770(9) 0.60192(11)
C13B C 0.2473(3) 1.39054(9) 0.58304(11)
H6B H 0.4222 1.2036 0.6475
loop_
_geom_bond_atom_site_label_1
_geom_bond_atom_site_label_2
_geom_bond_site_symmetry_1
_geom_bond_site_symmetry_2
In1 O1 1_555 1_555
O1 C1 1_555 1_555
O2 In1 1_555 1_555
O3 C8 1_555 1_555
O4 C8 1_555 1_555
O5 C13 1_555 1_555
O6 C13 1_555 1_555
O7 C9 1_555 1_555
C1 O2 1_555 1_555
C2 C1 1_555 1_555
C3 C2 1_555 1_555
H1 C3 1_555 1_555
C4 C3 1_555 1_555
C5 C4 1_555 1_555
H2 C5 1_555 1_555
C6 C5 1_555 1_555
C7 C2 1_555 1_555
H3 C7 1_555 1_555
C8 C6 1_555 1_555
C9 C10 1_555 1_555
C10 H4 1_555 1_555
C11 C10 1_555 1_555
C12 C11 1_555 1_555
H5 C12 1_555 1_555
C13 C11 1_555 1_555
C14 O7 1_555 1_555
H6 C14 1_555 1_555
In1A O3 1_555 1_555
In1D O5 1_555 1_555
In1D_2 O5B 1_555 1_555
O3A In1 1_555 1_555
O4A In1 1_555 1_555
O5B C13B 1_555 1_555
O5D In1 1_555 1_555
O5F In1 1_555 1_555
O6B In1D_2 1_555 1_555
O6D In1 1_555 1_555
O6F In1 1_555 1_555
C10B C9 1_555 1_555
H4B C10B 1_555 1_555
C11B C12 1_555 1_555
C13B O6B 1_555 1_555
H6B C14 1_555 1_555
O4 In1A 1_555 1_555
O6 In1D 1_555 1_555
C4 C14 1_555 1_555
C6 C7 1_555 1_555
C10B C11B 1_555 1_555
C11B C13B 1_555 1_555

#END
