
#######################################################################
#
#                 Cambridge Crystallographic Data Centre
#                                CCDC 
#
#######################################################################
#
# If this CIF has been generated from an entry in the Cambridge 
# Structural Database, then it will include bibliographic, chemical, 
# crystal, experimental, refinement or atomic coordinate data resulting 
# from the CCDC's data processing and validation procedures.
#
#######################################################################

data_FAYKOH
_chemical_formula_moiety         'C74 H40 In13 O60'
_symmetry_cell_setting           tetragonal
_symmetry_space_group_name_H-M   'I -4'
_symmetry_Int_Tables_number      82
_space_group_name_Hall           'I -4'
loop_
_symmetry_equiv_pos_site_id
_symmetry_equiv_pos_as_xyz
1 x,y,z
2 y,-x,-z
3 -x,-y,z
4 -y,x,-z
5 1/2+x,1/2+y,1/2+z
6 1/2+y,1/2-x,1/2-z
7 1/2-x,1/2-y,1/2+z
8 1/2-y,1/2+x,1/2-z
_cell_length_a                   22.0878(4)
_cell_length_b                   22.0878(4)
_cell_length_c                   16.5388(6)
_cell_angle_alpha                90
_cell_angle_beta                 90
_cell_angle_gamma                90
_cell_volume                     8068.8
loop_
_atom_site_label
_atom_site_type_symbol
_atom_site_fract_x
_atom_site_fract_y
_atom_site_fract_z
In1 In 0.292283(9) 0.689183(9) 0.101793(13)
C1 C 0.0000 1.0000 0.0000
C2 C 0.04215(14) 0.96566(14) -0.05545(18)
H1 H 0.0190 0.9384 -0.0895
H2 H 0.0637 0.9938 -0.0901
C3 C 0.12442(18) 0.89757(15) -0.04285(17)
C4 C 0.13238(14) 0.89375(16) -0.12582(17)
H3 H 0.1076 0.9163 -0.1598
C5 C 0.17880(19) 0.85499(16) -0.1606(2)
C6 C 0.20992(16) 0.8185(2) -0.1080(2)
H4 H 0.2376 0.7912 -0.1294
C7 C 0.20230(11) 0.81998(12) -0.0204(2)
C8 C 0.15652(19) 0.85803(18) 0.0086(2)
H5 H 0.1470 0.8572 0.0634
C9 C 0.18593(16) 0.84941(14) -0.2467(2)
C10 C 0.23547(13) 0.77451(15) 0.02241(19)
C11 C 0.5000 1.0000 0.2500
C12 C 0.47432(15) 0.94680(16) 0.2031(3)
H6 H 0.4378 0.9589 0.1746
H7 H 0.4643 0.9140 0.2396
C13 C 0.51134(13) 0.86920(16) 0.1061(2)
C14 C 0.45532(15) 0.83623(14) 0.1180(2)
H8 H 0.4239 0.8523 0.1486
C15 C 0.45070(14) 0.78159(16) 0.0831(2)
C16 C 0.4981(2) 0.75770(15) 0.0339(3)
H9 H 0.4935 0.7203 0.0088
C17 C 0.55215(14) 0.79150(13) 0.02341(18)
C18 C 0.55850(18) 0.84896(16) 0.0564(3)
H10 H 0.5923 0.8728 0.0461
C19 C 0.39736(16) 0.74368(19) 0.0962(3)
C20 C 0.6018(3) 0.7644(2) -0.0319(4)
O1 O 0.08421(13) 0.93201(14) -0.00797(12)
O2 O 0.22068(12) 0.76821(11) 0.09827(18)
O3 O 0.27358(16) 0.74180(12) -0.01049(15)
O4 O 0.23269(10) 0.82098(13) -0.27193(14)
O5 O 0.14692(17) 0.87451(15) -0.29511(18)
O6 O 0.52070(17) 0.92720(13) 0.1453(2)
O7 O 0.35591(10) 0.76207(11) 0.13908(16)
O8 O 0.39002(11) 0.69635(11) 0.05525(17)
O9 O 0.60383(13) 0.71080(11) -0.03709(15)
O10 O 0.63827(16) 0.80308(11) -0.05941(16)
In1A In -0.310817(9) 0.707717(9) -0.101793(13)
In1B In -0.292283(9) 1.310817(9) 0.101793(13)
In1C In 0.310817(9) 1.292283(9) -0.101793(13)
In1F In 0.207717(9) 0.810817(9) -0.398207(13)
In1A_2 In 0.689183(9) 0.707717(9) -0.101793(13)
In1G In -0.189183(9) 0.792283(9) 0.398207(13)
In1D In -0.207717(9) 1.189183(9) -0.398207(13)
In1E In 0.189183(9) 1.207717(9) 0.398207(13)
In1B_2 In 0.707717(9) 1.310817(9) 0.101793(13)
In1F_2 In 0.207717(9) 0.810817(9) 0.601793(13)
In1D_2 In 0.792283(9) 1.189183(9) 0.601793(13)
In1G_2 In 0.810817(9) 0.792283(9) 0.398207(13)
C2A C -0.03434(14) 0.95785(14) 0.05545(18)
C2B C -0.04215(14) 1.03434(14) -0.05545(18)
C2C C 0.03434(14) 1.04215(14) 0.05545(18)
H1A H -0.0616 0.9810 0.0895
H1B H -0.0190 1.0616 -0.0895
H1C H 0.0616 1.0190 0.0895
H2A H -0.0062 0.9363 0.0901
H2B H -0.0637 1.0062 -0.0901
H2C H 0.0062 1.0637 0.0901
C3A C -0.10243(15) 0.87558(18) 0.04285(17)
C3B C -0.12442(18) 1.10243(15) -0.04285(17)
C3C C 0.10243(15) 1.12442(18) 0.04285(17)
C4A C -0.10625(16) 0.86762(14) 0.12582(17)
C4B C -0.13238(14) 1.10625(16) -0.12582(17)
C4C C 0.10625(16) 1.13238(14) 0.12582(17)
H3A H -0.0837 0.8924 0.1598
H3B H -0.1076 1.0837 -0.1598
H3C H 0.0837 1.1076 0.1598
C5A C -0.14501(16) 0.82120(19) 0.1606(2)
C5B C -0.17880(19) 1.14501(16) -0.1606(2)
C5C C 0.14501(16) 1.17880(19) 0.1606(2)
C6A C -0.1815(2) 0.79008(16) 0.1080(2)
C6B C -0.20992(16) 1.1815(2) -0.1080(2)
C6C C 0.1815(2) 1.20992(16) 0.1080(2)
H4A H -0.2088 0.7624 0.1294
H4B H -0.2376 1.2088 -0.1294
H4C H 0.2088 1.2376 0.1294
C7A C -0.18002(12) 0.79770(11) 0.0204(2)
C7B C -0.20230(11) 1.18002(12) -0.0204(2)
C7C C 0.18002(12) 1.20230(11) 0.0204(2)
C8A C -0.14197(18) 0.84348(19) -0.0086(2)
C8B C -0.15652(19) 1.14197(18) 0.0086(2)
C8C C 0.14197(18) 1.15652(19) -0.0086(2)
H5A H -0.1428 0.8530 -0.0634
H5B H -0.1470 1.1428 0.0634
H5C H 0.1428 1.1470 -0.0634
C9A C -0.15059(14) 0.81407(16) 0.2467(2)
C9B C -0.18593(16) 1.15059(14) -0.2467(2)
C9C C 0.15059(14) 1.18593(16) 0.2467(2)
C10A C -0.22549(15) 0.76453(13) -0.02241(19)
C10B C -0.23547(13) 1.22549(15) 0.02241(19)
C10C C 0.22549(15) 1.23547(13) -0.02241(19)
C12B C 0.52568(15) 1.05320(16) 0.2031(3)
C12E C 0.44680(16) 1.02568(15) 0.2969(3)
C12G C 0.55320(16) 0.97432(15) 0.2969(3)
H6B H 0.5622 1.0411 0.1746
H6E H 0.4589 1.0622 0.3254
H6G H 0.5411 0.9378 0.3254
H7B H 0.5357 1.0860 0.2396
H7E H 0.4140 1.0357 0.2604
H7G H 0.5860 0.9643 0.2604
C13B C 0.48866(13) 1.13080(16) 0.1061(2)
C13E C 0.36920(16) 0.98866(13) 0.3939(2)
C13G C 0.63080(16) 1.01134(13) 0.3939(2)
C14B C 0.54468(15) 1.16377(14) 0.1180(2)
C14E C 0.33623(14) 1.04468(15) 0.3820(2)
C14G C 0.66377(14) 0.95532(15) 0.3820(2)
H8B H 0.5761 1.1477 0.1486
H8E H 0.3523 1.0761 0.3514
H8G H 0.6477 0.9239 0.3514
C15B C 0.54930(14) 1.21841(16) 0.0831(2)
C15E C 0.28159(16) 1.04930(14) 0.4169(2)
C15G C 0.71841(16) 0.95070(14) 0.4169(2)
C16B C 0.5019(2) 1.24230(15) 0.0339(3)
C16E C 0.25770(15) 1.0019(2) 0.4661(3)
C16G C 0.74230(15) 0.9981(2) 0.4661(3)
H9B H 0.5065 1.2797 0.0088
H9E H 0.2203 1.0065 0.4912
H9G H 0.7797 0.9935 0.4912
C17B C 0.44785(14) 1.20850(13) 0.02341(18)
C17E C 0.29150(13) 0.94785(14) 0.47659(18)
C17G C 0.70850(13) 1.05215(14) 0.47659(18)
C18B C 0.44150(18) 1.15104(16) 0.0564(3)
C18E C 0.34896(16) 0.94150(18) 0.4436(3)
C18G C 0.65104(16) 1.05850(18) 0.4436(3)
H10B H 0.4077 1.1272 0.0461
H10E H 0.3728 0.9077 0.4539
H10G H 0.6272 1.0923 0.4539
C19B C 0.60264(16) 1.25632(19) 0.0962(3)
C19E C 0.24368(19) 1.10264(16) 0.4038(3)
C19G C 0.75632(19) 0.89736(16) 0.4038(3)
C20B C 0.3982(3) 1.2356(2) -0.0319(4)
C20E C 0.2644(2) 0.8982(3) 0.5319(4)
C20G C 0.7356(2) 1.1018(3) 0.5319(4)
O1A O -0.06799(14) 0.91579(13) 0.00797(12)
O1B O -0.08421(13) 1.06799(14) -0.00797(12)
O1C O 0.06799(14) 1.08421(13) 0.00797(12)
O2A O -0.23179(11) 0.77932(12) -0.09827(18)
O2B O -0.22068(12) 1.23179(11) 0.09827(18)
O2C O 0.23179(11) 1.22068(12) -0.09827(18)
O3A O -0.25820(12) 0.72642(16) 0.01049(15)
O3B O -0.27358(16) 1.25820(12) -0.01049(15)
O3C O 0.25820(12) 1.27358(16) 0.01049(15)
O4A O -0.17902(13) 0.76731(10) 0.27193(14)
O4B O -0.23269(10) 1.17902(13) -0.27193(14)
O4C O 0.17902(13) 1.23269(10) 0.27193(14)
O4F O 0.26731(10) 0.67902(13) 0.22807(14)
O4G O -0.32098(13) 0.73269(10) -0.22807(14)
O4D O -0.26731(10) 1.32098(13) 0.22807(14)
O4E O 0.32098(13) 1.26731(10) -0.22807(14)
O5A O -0.12549(15) 0.85308(17) 0.29511(18)
O5B O -0.14692(17) 1.12549(15) -0.29511(18)
O5C O 0.12549(15) 1.14692(17) 0.29511(18)
O5F O 0.35308(17) 0.62549(15) 0.20489(18)
O5G O -0.37451(15) 0.64692(17) -0.20489(18)
O5D O -0.35308(17) 1.37451(15) 0.20489(18)
O5E O 0.37451(15) 1.35308(17) -0.20489(18)
O6B O 0.47930(17) 1.07280(13) 0.1453(2)
O6E O 0.42720(13) 0.97930(17) 0.3547(2)
O6G O 0.57280(13) 1.02070(17) 0.3547(2)
O7B O 0.64409(10) 1.23793(11) 0.13908(16)
O7E O 0.26207(11) 1.14409(10) 0.36092(16)
O7G O 0.73793(11) 0.85591(10) 0.36092(16)
O7A O -0.23793(11) 0.64409(10) -0.13908(16)
O7B_2 O -0.35591(10) 1.23793(11) 0.13908(16)
O7C O 0.23793(11) 1.35591(10) -0.13908(16)
O8B O 0.60998(11) 1.30365(11) 0.05525(17)
O8E O 0.19635(11) 1.10998(11) 0.44475(17)
O8G O 0.80365(11) 0.89002(11) 0.44475(17)
O8A O -0.30365(11) 0.60998(11) -0.05525(17)
O8B_2 O -0.39002(11) 1.30365(11) 0.05525(17)
O8C O 0.30365(11) 1.39002(11) -0.05525(17)
O9B O 0.39617(13) 1.28920(11) -0.03709(15)
O9E O 0.21080(11) 0.89617(13) 0.53709(15)
O9G O 0.78920(11) 1.10383(13) 0.53709(15)
O9C O 0.28920(11) 0.60383(13) 0.03709(15)
O9_2 O -0.39617(13) 0.71080(11) -0.03709(15)
O9A O -0.28920(11) 1.39617(13) 0.03709(15)
O10B O 0.36173(16) 1.19692(11) -0.05941(16)
O10E O 0.30308(11) 0.86173(16) 0.55941(16)
O10G O 0.69692(11) 1.13827(16) 0.55941(16)
O10C O 0.19692(11) 0.63827(16) 0.05941(16)
O10_2 O -0.36173(16) 0.80308(11) -0.05941(16)
O10A O -0.19692(11) 1.36173(16) 0.05941(16)
loop_
_geom_bond_atom_site_label_1
_geom_bond_atom_site_label_2
_geom_bond_site_symmetry_1
_geom_bond_site_symmetry_2
In1 O2 1_555 1_555
C1 C2 1_555 1_555
C2 H1 1_555 1_555
H2 C2 1_555 1_555
C3 C4 1_555 1_555
C4 H3 1_555 1_555
C5 C4 1_555 1_555
C6 C5 1_555 1_555
H4 C6 1_555 1_555
C7 C6 1_555 1_555
C8 C3 1_555 1_555
H5 C8 1_555 1_555
C9 C5 1_555 1_555
C10 C7 1_555 1_555
C11 C12 1_555 1_555
C12 H6 1_555 1_555
H7 C12 1_555 1_555
C13 C14 1_555 1_555
C14 H8 1_555 1_555
C15 C14 1_555 1_555
C16 C15 1_555 1_555
H9 C16 1_555 1_555
C17 C16 1_555 1_555
C18 C13 1_555 1_555
H10 C18 1_555 1_555
C19 C15 1_555 1_555
C20 C17 1_555 1_555
O1 C2 1_555 1_555
O2 C10 1_555 1_555
O3 In1 1_555 1_555
O4 C9 1_555 1_555
O5 C9 1_555 1_555
O6 C12 1_555 1_555
O7 In1 1_555 1_555
O8 In1 1_555 1_555
O9 C20 1_555 1_555
O10 C20 1_555 1_555
In1A O2A 1_555 1_555
In1B O2B 1_555 1_555
In1C O2C 1_555 1_555
In1F O4 1_555 1_555
In1A_2 O9 1_555 1_555
In1G O4A 1_555 1_555
In1D O4B 1_555 1_555
In1E O4C 1_555 1_555
In1B_2 O7B 1_555 1_555
In1F_2 O9E 1_555 1_555
In1D_2 O9G 1_555 1_555
In1G_2 O7G 1_555 1_555
C2A C1 1_555 1_555
C2B C1 1_555 1_555
C2C C1 1_555 1_555
H1A C2A 1_555 1_555
H1B C2B 1_555 1_555
H1C C2C 1_555 1_555
H2A C2A 1_555 1_555
H2B C2B 1_555 1_555
H2C C2C 1_555 1_555
C3A C4A 1_555 1_555
C3B C4B 1_555 1_555
C3C C4C 1_555 1_555
C4A H3A 1_555 1_555
C4B H3B 1_555 1_555
C4C H3C 1_555 1_555
C5A C4A 1_555 1_555
C5B C4B 1_555 1_555
C5C C4C 1_555 1_555
C6A C5A 1_555 1_555
C6B C5B 1_555 1_555
C6C C5C 1_555 1_555
H4A C6A 1_555 1_555
H4B C6B 1_555 1_555
H4C C6C 1_555 1_555
C7A C6A 1_555 1_555
C7B C6B 1_555 1_555
C7C C6C 1_555 1_555
C8A C3A 1_555 1_555
C8B C3B 1_555 1_555
C8C C3C 1_555 1_555
H5A C8A 1_555 1_555
H5B C8B 1_555 1_555
H5C C8C 1_555 1_555
C9A C5A 1_555 1_555
C9B C5B 1_555 1_555
C9C C5C 1_555 1_555
C10A C7A 1_555 1_555
C10B C7B 1_555 1_555
C10C C7C 1_555 1_555
C12B C11 1_555 1_555
C12E C11 1_555 1_555
C12G C11 1_555 1_555
H6B C12B 1_555 1_555
H6E C12E 1_555 1_555
H6G C12G 1_555 1_555
H7B C12B 1_555 1_555
H7E C12E 1_555 1_555
H7G C12G 1_555 1_555
C13B C14B 1_555 1_555
C13E C14E 1_555 1_555
C13G C14G 1_555 1_555
C14B H8B 1_555 1_555
C14E H8E 1_555 1_555
C14G H8G 1_555 1_555
C15B C14B 1_555 1_555
C15E C14E 1_555 1_555
C15G C14G 1_555 1_555
C16B C15B 1_555 1_555
C16E C15E 1_555 1_555
C16G C15G 1_555 1_555
H9B C16B 1_555 1_555
H9E C16E 1_555 1_555
H9G C16G 1_555 1_555
C17B C16B 1_555 1_555
C17E C16E 1_555 1_555
C17G C16G 1_555 1_555
C18B C13B 1_555 1_555
C18E C13E 1_555 1_555
C18G C13G 1_555 1_555
H10B C18B 1_555 1_555
H10E C18E 1_555 1_555
H10G C18G 1_555 1_555
C19B C15B 1_555 1_555
C19E C15E 1_555 1_555
C19G C15G 1_555 1_555
C20B C17B 1_555 1_555
C20E C17E 1_555 1_555
C20G C17G 1_555 1_555
O1A C2A 1_555 1_555
O1B C2B 1_555 1_555
O1C C2C 1_555 1_555
O2A C10A 1_555 1_555
O2B C10B 1_555 1_555
O2C C10C 1_555 1_555
O3A In1A 1_555 1_555
O3B In1B 1_555 1_555
O3C In1C 1_555 1_555
O4A C9A 1_555 1_555
O4B C9B 1_555 1_555
O4C C9C 1_555 1_555
O4F In1 1_555 1_555
O4G In1A 1_555 1_555
O4D In1B 1_555 1_555
O4E In1C 1_555 1_555
O5A In1G 1_555 1_555
O5B In1D 1_555 1_555
O5C In1E 1_555 1_555
O5F In1 1_555 1_555
O5G In1A 1_555 1_555
O5D In1B 1_555 1_555
O5E In1C 1_555 1_555
O6B C12B 1_555 1_555
O6E C12E 1_555 1_555
O6G C12G 1_555 1_555
O7B C19B 1_555 1_555
O7E In1E 1_555 1_555
O7G C19G 1_555 1_555
O7A In1A 1_555 1_555
O7B_2 In1B 1_555 1_555
O7C In1C 1_555 1_555
O8B In1B_2 1_555 1_555
O8E In1E 1_555 1_555
O8G In1G_2 1_555 1_555
O8A In1A 1_555 1_555
O8B_2 In1B 1_555 1_555
O8C In1C 1_555 1_555
O9B In1C 1_555 1_555
O9E C20E 1_555 1_555
O9G C20G 1_555 1_555
O9C In1 1_555 1_555
O9_2 In1A 1_555 1_555
O9A In1B 1_555 1_555
O10B In1C 1_555 1_555
O10E In1F_2 1_555 1_555
O10G In1D_2 1_555 1_555
O10C In1 1_555 1_555
O10_2 In1A 1_555 1_555
O10A In1B 1_555 1_555
C3 O1 1_555 1_555
C7 C8 1_555 1_555
C10 O3 1_555 1_555
C13 O6 1_555 1_555
C17 C18 1_555 1_555
C19 O7 1_555 1_555
C19 O8 1_555 1_555
O5 In1F 1_555 1_555
O10 In1A_2 1_555 1_555
C3A O1A 1_555 1_555
C3B O1B 1_555 1_555
C3C O1C 1_555 1_555
C7A C8A 1_555 1_555
C7B C8B 1_555 1_555
C7C C8C 1_555 1_555
C9A O5A 1_555 1_555
C9B O5B 1_555 1_555
C9C O5C 1_555 1_555
C10A O3A 1_555 1_555
C10B O3B 1_555 1_555
C10C O3C 1_555 1_555
C13B O6B 1_555 1_555
C13E O6E 1_555 1_555
C13G O6G 1_555 1_555
C17B C18B 1_555 1_555
C17E C18E 1_555 1_555
C17G C18G 1_555 1_555
C19B O8B 1_555 1_555
C19E O7E 1_555 1_555
C19E O8E 1_555 1_555
C19G O8G 1_555 1_555
C20B O9B 1_555 1_555
C20B O10B 1_555 1_555
C20E O10E 1_555 1_555
C20G O10G 1_555 1_555

#END
