
#######################################################################
#
#                 Cambridge Crystallographic Data Centre
#                                CCDC 
#
#######################################################################
#
# If this CIF has been generated from an entry in the Cambridge 
# Structural Database, then it will include bibliographic, chemical, 
# crystal, experimental, refinement or atomic coordinate data resulting 
# from the CCDC's data processing and validation procedures.
#
#######################################################################

data_EHAGUR
_chemical_formula_moiety         '(C30 H32 Dy2 O43 U3)n'
_symmetry_cell_setting           triclinic
_symmetry_space_group_name_H-M   'P -1'
_symmetry_Int_Tables_number      2
_space_group_name_Hall           '-P 1'
loop_
_symmetry_equiv_pos_site_id
_symmetry_equiv_pos_as_xyz
1 x,y,z
2 -x,-y,-z
_cell_length_a                   10.5363(6)
_cell_length_b                   11.4698(6)
_cell_length_c                   13.4114(7)
_cell_angle_alpha                69.0280(10)
_cell_angle_beta                 78.4060(10)
_cell_angle_gamma                63.4140(10)
_cell_volume                     1351.75
loop_
_atom_site_label
_atom_site_type_symbol
_atom_site_fract_x
_atom_site_fract_y
_atom_site_fract_z
U1 U 0.62382(3) 0.71245(3) 0.83696(3)
U2 U 1.0000 0.5000 0.5000
Dy1 Dy 0.60033(4) 0.22942(5) 0.74930(4)
C1 C 0.9964(10) 0.3415(10) 0.8538(7)
C2 C 1.1110(9) 0.3120(9) 0.9105(8)
H1 H 1.0958 0.3577 0.9597
C3 C 1.2479(9) 0.2151(10) 0.8947(7)
C4 C 1.2666(9) 0.1419(10) 0.8237(7)
C5 C 1.1457(9) 0.1648(10) 0.7751(8)
H2 H 1.1557 0.1096 0.7349
C6 C 1.0155(9) 0.2656(9) 0.7861(7)
C7 C 0.6260(10) 0.9987(11) 0.4515(8)
H3 H 0.7126 0.9980 0.4183
C8 C 0.6186(10) 0.8757(10) 0.5060(8)
C9 C 0.4879(9) 0.8759(10) 0.5571(7)
C10 C 0.8621(10) 0.4630(11) 0.8607(8)
C11 C 1.3623(9) 0.1927(9) 0.9579(7)
C12 C 1.4083(9) 0.0410(10) 0.7948(7)
C13 C 0.8964(9) 0.2913(9) 0.7250(7)
C14 C 0.4680(9) 0.7474(10) 0.6221(7)
C15 C 0.7431(10) 0.7455(10) 0.5084(8)
O1 O 0.5314(7) 0.6342(8) 0.9452(6)
O2 O 0.7191(7) 0.7887(8) 0.7306(6)
O3 O 1.0684(8) 0.4998(8) 0.6096(6)
O4 O 0.8504(7) 0.5353(8) 0.9148(7)
O5 O 0.7619(7) 0.4950(8) 0.8031(6)
O6 O 0.8150(7) 0.2338(7) 0.7720(5)
O7 O 0.8877(6) 0.3623(7) 0.6283(5)
O8 O 1.4170(7) -0.0799(7) 0.8200(6)
O9 O 1.5021(7) 0.0771(8) 0.7519(6)
O10 O 1.4836(7) 0.1748(8) 0.9167(5)
O11 O 1.3263(7) 0.1965(7) 1.0524(5)
O12 O 0.5020(7) 0.6951(7) 0.7184(5)
O13 O 0.4107(9) 0.7015(8) 0.5816(6)
O14 O 0.7330(8) 0.6336(8) 0.5336(7)
O15 O 0.8661(8) 0.7505(8) 0.4791(6)
O16 O 0.7181(8) 0.1523(8) 0.6035(6)
H4 H 0.6716 0.1811 0.5440
H5 H 0.8102 0.0933 0.6069
O17 O 0.6084(7) 0.4210(8) 0.6049(6)
H6 H 0.5284 0.4858 0.5721
H7 H 0.6916 0.4287 0.5829
O18 O 0.3679(9) 0.3762(10) 0.6822(8)
H8 H 0.3165 0.4532 0.7007
H9 H 0.3319 0.3549 0.6392
O19 O 0.5234(10) 0.4102(10) 0.8259(7)
H10 H 0.4370 0.4797 0.8125
H11 H 0.5808 0.4089 0.8682
O20 O 0.7669(8) 0.0104(8) 0.8358(7)
H12 H 0.7428 -0.0613 0.8589
H13 H 0.8546 -0.0019 0.8455
C7A C 0.3740(10) 1.0013(11) 0.5485(8)
H3A H 0.2874 1.0020 0.5817
C8A C 0.3814(10) 1.1243(10) 0.4940(8)
C9A C 0.5121(9) 1.1241(10) 0.4429(7)
C14A C 0.5320(9) 1.2526(10) 0.3779(7)
C15A C 0.2569(10) 1.2545(10) 0.4916(8)
O12A O 0.4980(7) 1.3049(7) 0.2816(5)
O13A O 0.5893(9) 1.2985(8) 0.4184(6)
O14A O 0.2670(8) 1.3664(8) 0.4664(7)
O15A O 0.1339(8) 1.2495(8) 0.5209(6)
U1A U 0.37618(3) 1.28755(3) 0.16304(3)
Dy1A Dy 0.39967(4) 1.77058(5) 0.25070(4)
C1A C 0.0036(10) 1.6585(10) 0.1462(7)
C2A C -0.1110(9) 1.6880(9) 0.0895(8)
H1A H -0.0958 1.6423 0.0403
C3A C -0.2479(9) 1.7849(10) 0.1053(7)
C4A C -0.2666(9) 1.8581(10) 0.1763(7)
C5A C -0.1457(9) 1.8352(10) 0.2249(8)
H2A H -0.1557 1.8904 0.2651
C6A C -0.0155(9) 1.7344(9) 0.2139(7)
C10A C 0.1379(10) 1.5370(11) 0.1393(8)
C11A C -0.3623(9) 1.8073(9) 0.0421(7)
C12A C -0.4083(9) 1.9590(10) 0.2052(7)
C13A C 0.1036(9) 1.7087(9) 0.2750(7)
O1A O 0.4686(7) 1.3658(8) 0.0548(6)
O2A O 0.2809(7) 1.2113(8) 0.2694(6)
O4A O 0.1496(7) 1.4647(8) 0.0852(7)
O5A O 0.2381(7) 1.5050(8) 0.1969(6)
O6A O 0.1850(7) 1.7662(7) 0.2280(5)
O7A O 0.1123(6) 1.6377(7) 0.3717(5)
O8A O -0.4170(7) 2.0799(7) 0.1800(6)
O9A O -0.5021(7) 1.9229(8) 0.2481(6)
O10A O -0.4836(7) 1.8252(8) 0.0833(5)
O11A O -0.3263(7) 1.8035(7) -0.0524(5)
O16A O 0.2819(8) 1.8477(8) 0.3965(6)
H4A H 0.3284 1.8189 0.4560
H5A H 0.1898 1.9067 0.3931
O17A O 0.3916(7) 1.5790(8) 0.3951(6)
H6A H 0.4716 1.5142 0.4279
H7A H 0.3084 1.5713 0.4171
O18A O 0.6321(9) 1.6238(10) 0.3178(8)
H8A H 0.6835 1.5468 0.2993
H9A H 0.6681 1.6451 0.3608
O19A O 0.4766(10) 1.5898(10) 0.1741(7)
H10A H 0.5630 1.5203 0.1875
H11A H 0.4192 1.5911 0.1318
O20A O 0.2331(8) 1.9896(8) 0.1642(7)
H12A H 0.2572 2.0613 0.1411
H13A H 0.1454 2.0019 0.1545
O3A O 0.9316(8) 0.5002(8) 0.3904(6)
U1_2 U -0.37618(3) 1.71245(3) -0.16304(3)
U1_3 U 1.62382(3) -0.28755(3) 0.83696(3)
U1A_2 U -0.62382(3) 2.28755(3) 0.16304(3)
U1A_3 U 1.37618(3) 0.28755(3) 1.16304(3)
U2_2 U 0.0000 1.5000 0.5000
Dy1_2 Dy 1.60033(4) 0.22942(5) 0.74930(4)
Dy1A_2 Dy -0.60033(4) 1.77058(5) 0.25070(4)
O7A_2 O 1.1123(6) 0.6377(7) 0.3717(5)
O8_2 O 0.4170(7) 0.9201(7) 0.8200(6)
O8A_2 O 0.5830(7) 1.0799(7) 0.1800(6)
O9_2 O 0.5021(7) 0.0771(8) 0.7519(6)
O9A_2 O 0.4979(7) 1.9229(8) 0.2481(6)
O10_2 O 0.4836(7) 0.1748(8) 0.9167(5)
O10A_2 O 0.5164(7) 1.8252(8) 0.0833(5)
O11_2 O 0.3263(7) 1.1965(7) 0.0524(5)
O11A_2 O 0.6737(7) 0.8035(7) 0.9476(5)
O14A_2 O 1.2670(8) 0.3664(8) 0.4664(7)
O15A_2 O 1.1339(8) 0.2495(8) 0.5209(6)
O21 O 0.0585(17) 0.1017(19) 0.4191(16)
O22 O 0.9483(17) 0.110(2) 0.185(2)
O23 O 0.820(3) 0.147(4) 0.0185(17)
loop_
_geom_bond_atom_site_label_1
_geom_bond_atom_site_label_2
_geom_bond_site_symmetry_1
_geom_bond_site_symmetry_2
U1 O1 1_555 1_555
U2 O3 1_555 1_555
Dy1 O6 1_555 1_555
C1 C2 1_555 1_555
C2 H1 1_555 1_555
C3 C2 1_555 1_555
C4 C3 1_555 1_555
C5 C4 1_555 1_555
H2 C5 1_555 1_555
C6 C1 1_555 1_555
C7 H3 1_555 1_555
C8 C7 1_555 1_555
C9 C8 1_555 1_555
C10 C1 1_555 1_555
C11 C3 1_555 1_555
C12 C4 1_555 1_555
C13 C6 1_555 1_555
C14 C9 1_555 1_555
C15 C8 1_555 1_555
O2 U1 1_555 1_555
O4 U1 1_555 1_555
O5 U1 1_555 1_555
O6 C13 1_555 1_555
O7 U2 1_555 1_555
O8 C12 1_555 1_555
O9 C12 1_555 1_555
O10 C11 1_555 1_555
O11 C11 1_555 1_555
O12 U1 1_555 1_555
O13 C14 1_555 1_555
O14 U2 1_555 1_555
O15 U2 1_555 1_555
O16 Dy1 1_555 1_555
H4 O16 1_555 1_555
H5 O16 1_555 1_555
O17 Dy1 1_555 1_555
H6 O17 1_555 1_555
H7 O17 1_555 1_555
O18 Dy1 1_555 1_555
H8 O18 1_555 1_555
H9 O18 1_555 1_555
O19 Dy1 1_555 1_555
H10 O19 1_555 1_555
H11 O19 1_555 1_555
O20 Dy1 1_555 1_555
H12 O20 1_555 1_555
H13 O20 1_555 1_555
C7A C9 1_555 1_555
H3A C7A 1_555 1_555
C8A C7A 1_555 1_555
C9A C7 1_555 1_555
C14A C9A 1_555 1_555
C15A C8A 1_555 1_555
O12A C14A 1_555 1_555
O13A C14A 1_555 1_555
O14A C15A 1_555 1_555
O15A C15A 1_555 1_555
U1A O12A 1_555 1_555
Dy1A O6A 1_555 1_555
C1A C2A 1_555 1_555
C2A H1A 1_555 1_555
C3A C2A 1_555 1_555
C4A C3A 1_555 1_555
C5A C4A 1_555 1_555
H2A C5A 1_555 1_555
C6A C1A 1_555 1_555
C10A C1A 1_555 1_555
C11A C3A 1_555 1_555
C12A C4A 1_555 1_555
C13A C6A 1_555 1_555
O1A U1A 1_555 1_555
O2A U1A 1_555 1_555
O4A U1A 1_555 1_555
O5A U1A 1_555 1_555
O6A C13A 1_555 1_555
O7A C13A 1_555 1_555
O8A C12A 1_555 1_555
O9A C12A 1_555 1_555
O10A C11A 1_555 1_555
O11A C11A 1_555 1_555
O16A Dy1A 1_555 1_555
H4A O16A 1_555 1_555
H5A O16A 1_555 1_555
O17A Dy1A 1_555 1_555
H6A O17A 1_555 1_555
H7A O17A 1_555 1_555
O18A Dy1A 1_555 1_555
H8A O18A 1_555 1_555
H9A O18A 1_555 1_555
O19A Dy1A 1_555 1_555
H10A O19A 1_555 1_555
H11A O19A 1_555 1_555
O20A Dy1A 1_555 1_555
H12A O20A 1_555 1_555
H13A O20A 1_555 1_555
O3A U2 1_555 1_555
U1_2 O11A 1_555 1_555
U1_3 O8 1_555 1_555
U1A_2 O8A 1_555 1_555
U1A_3 O11 1_555 1_555
U2_2 O14A 1_555 1_555
Dy1_2 O9 1_555 1_555
Dy1A_2 O9A 1_555 1_555
O7A_2 U2 1_555 1_555
O8_2 U1 1_555 1_555
O8A_2 U1A 1_555 1_555
O9_2 Dy1 1_555 1_555
O9A_2 Dy1A 1_555 1_555
O10_2 Dy1 1_555 1_555
O10A_2 Dy1A 1_555 1_555
O11_2 U1A 1_555 1_555
O11A_2 U1 1_555 1_555
O14A_2 U2 1_555 1_555
O15A_2 U2 1_555 1_555
C5 C6 1_555 1_555
C10 O4 1_555 1_555
C10 O5 1_555 1_555
C13 O7 1_555 1_555
C14 O12 1_555 1_555
C15 O14 1_555 1_555
C15 O15 1_555 1_555
O10 Dy1_2 1_555 1_555
C8A C9A 1_555 1_555
O15A U2_2 1_555 1_555
C5A C6A 1_555 1_555
C10A O4A 1_555 1_555
C10A O5A 1_555 1_555
O7A U2_2 1_555 1_555
O10A Dy1A_2 1_555 1_555

#END
